
*** ChampSim Multicore Out-of-Order Simulator ***

Warmup Instructions: 200000
Simulation Instructions: 10000000
Number of CPUs: 4
Off-chip DRAM Size: 4 GiB Channels: 1 Width: 64-bit Data Rate: 3200 MT/s

VirtualMemory physical capacity: 8588881920 num_ppages: 2096895
VirtualMemory page size: 4096 log2_page_size: 12

CPU 0 runs /home/alexcato/Documents/Proyecto_electrico/ChampSim_GUI/traces/600.perlbench_s-210B.champsimtrace.xz
CPU 1 runs /home/alexcato/Documents/Proyecto_electrico/ChampSim_GUI/traces/600.perlbench_s-210B.champsimtrace.xz
CPU 2 runs /home/alexcato/Documents/Proyecto_electrico/ChampSim_GUI/traces/600.perlbench_s-210B.champsimtrace.xz
CPU 3 runs /home/alexcato/Documents/Proyecto_electrico/ChampSim_GUI/traces/600.perlbench_s-210B.champsimtrace.xz
CPU 0 Bimodal branch predictor
Basic BTB sets: 1024 ways: 8 indirect buffer size: 4096 RAS size: 64
CPU 1 Bimodal branch predictor
Basic BTB sets: 1024 ways: 8 indirect buffer size: 4096 RAS size: 64
CPU 2 Bimodal branch predictor
Basic BTB sets: 1024 ways: 8 indirect buffer size: 4096 RAS size: 64
CPU 3 Bimodal branch predictor
Basic BTB sets: 1024 ways: 8 indirect buffer size: 4096 RAS size: 64

Warmup complete CPU 0 instructions: 200224 cycles: 50643 (Simulation time: 0 hr 0 min 2 sec) 
Warmup complete CPU 1 instructions: 200259 cycles: 50643 (Simulation time: 0 hr 0 min 2 sec) 
Warmup complete CPU 2 instructions: 200124 cycles: 50643 (Simulation time: 0 hr 0 min 2 sec) 
Warmup complete CPU 3 instructions: 200003 cycles: 50643 (Simulation time: 0 hr 0 min 2 sec) 



ChampSim completed all CPUs

Total Simulation Statistics (not including warmup)

CPU 0 cumulative IPC: 1.96192 instructions: 196192 cycles: 100000
cpu0_DTLB TOTAL     ACCESS:      36062  HIT:      35927  MISS:        135
cpu0_DTLB LOAD      ACCESS:      20111  HIT:      20056  MISS:         55
cpu0_DTLB RFO       ACCESS:      15951  HIT:      15871  MISS:         80
cpu0_DTLB PREFETCH  ACCESS:          0  HIT:          0  MISS:          0
cpu0_DTLB WRITEBACK ACCESS:          0  HIT:          0  MISS:          0
cpu0_ITLB TOTAL     ACCESS:      17907  HIT:      17907  MISS:          0
cpu0_ITLB LOAD      ACCESS:      17907  HIT:      17907  MISS:          0
cpu0_ITLB RFO       ACCESS:          0  HIT:          0  MISS:          0
cpu0_ITLB PREFETCH  ACCESS:          0  HIT:          0  MISS:          0
cpu0_ITLB WRITEBACK ACCESS:          0  HIT:          0  MISS:          0
cpu0_L1I TOTAL     ACCESS:       5351  HIT:       5351  MISS:          0
cpu0_L1I LOAD      ACCESS:       5351  HIT:       5351  MISS:          0
cpu0_L1I RFO       ACCESS:          0  HIT:          0  MISS:          0
cpu0_L1I PREFETCH  ACCESS:          0  HIT:          0  MISS:          0
cpu0_L1I WRITEBACK ACCESS:          0  HIT:          0  MISS:          0
cpu0_STLB TOTAL     ACCESS:        135  HIT:        126  MISS:          9
cpu0_STLB LOAD      ACCESS:         55  HIT:         46  MISS:          9
cpu0_STLB RFO       ACCESS:         80  HIT:         80  MISS:          0
cpu0_STLB PREFETCH  ACCESS:          0  HIT:          0  MISS:          0
cpu0_STLB WRITEBACK ACCESS:          0  HIT:          0  MISS:          0
cpu0_L1D TOTAL     ACCESS:      63781  HIT:      63748  MISS:         33
cpu0_L1D LOAD      ACCESS:      22254  HIT:      22221  MISS:         33
cpu0_L1D RFO       ACCESS:      41518  HIT:      41518  MISS:          0
cpu0_L1D PREFETCH  ACCESS:          0  HIT:          0  MISS:          0
cpu0_L1D WRITEBACK ACCESS:          0  HIT:          0  MISS:          0
cpu0_L2C TOTAL     ACCESS:         33  HIT:          0  MISS:         33
cpu0_L2C LOAD      ACCESS:         33  HIT:          0  MISS:         33
cpu0_L2C RFO       ACCESS:          0  HIT:          0  MISS:          0
cpu0_L2C PREFETCH  ACCESS:          0  HIT:          0  MISS:          0
cpu0_L2C WRITEBACK ACCESS:          0  HIT:          0  MISS:          0
LLC TOTAL     ACCESS:         33  HIT:          0  MISS:         33
LLC LOAD      ACCESS:         33  HIT:          0  MISS:         33
LLC RFO       ACCESS:          0  HIT:          0  MISS:          0
LLC PREFETCH  ACCESS:          0  HIT:          0  MISS:          0
LLC WRITEBACK ACCESS:          0  HIT:          0  MISS:          0

CPU 1 cumulative IPC: 1.92403 instructions: 192403 cycles: 100000
cpu1_DTLB TOTAL     ACCESS:      34121  HIT:      33986  MISS:        135
cpu1_DTLB LOAD      ACCESS:      18875  HIT:      18820  MISS:         55
cpu1_DTLB RFO       ACCESS:      15246  HIT:      15166  MISS:         80
cpu1_DTLB PREFETCH  ACCESS:          0  HIT:          0  MISS:          0
cpu1_DTLB WRITEBACK ACCESS:          0  HIT:          0  MISS:          0
cpu1_ITLB TOTAL     ACCESS:      16780  HIT:      16780  MISS:          0
cpu1_ITLB LOAD      ACCESS:      16780  HIT:      16780  MISS:          0
cpu1_ITLB RFO       ACCESS:          0  HIT:          0  MISS:          0
cpu1_ITLB PREFETCH  ACCESS:          0  HIT:          0  MISS:          0
cpu1_ITLB WRITEBACK ACCESS:          0  HIT:          0  MISS:          0
cpu1_L1I TOTAL     ACCESS:       5059  HIT:       5059  MISS:          0
cpu1_L1I LOAD      ACCESS:       5059  HIT:       5059  MISS:          0
cpu1_L1I RFO       ACCESS:          0  HIT:          0  MISS:          0
cpu1_L1I PREFETCH  ACCESS:          0  HIT:          0  MISS:          0
cpu1_L1I WRITEBACK ACCESS:          0  HIT:          0  MISS:          0
cpu1_STLB TOTAL     ACCESS:        135  HIT:        126  MISS:          9
cpu1_STLB LOAD      ACCESS:         55  HIT:         46  MISS:          9
cpu1_STLB RFO       ACCESS:         80  HIT:         80  MISS:          0
cpu1_STLB PREFETCH  ACCESS:          0  HIT:          0  MISS:          0
cpu1_STLB WRITEBACK ACCESS:          0  HIT:          0  MISS:          0
cpu1_L1D TOTAL     ACCESS:      62376  HIT:      62344  MISS:         32
cpu1_L1D LOAD      ACCESS:      21653  HIT:      21621  MISS:         32
cpu1_L1D RFO       ACCESS:      40714  HIT:      40714  MISS:          0
cpu1_L1D PREFETCH  ACCESS:          0  HIT:          0  MISS:          0
cpu1_L1D WRITEBACK ACCESS:          0  HIT:          0  MISS:          0
cpu1_L2C TOTAL     ACCESS:         32  HIT:          0  MISS:         32
cpu1_L2C LOAD      ACCESS:         32  HIT:          0  MISS:         32
cpu1_L2C RFO       ACCESS:          0  HIT:          0  MISS:          0
cpu1_L2C PREFETCH  ACCESS:          0  HIT:          0  MISS:          0
cpu1_L2C WRITEBACK ACCESS:          0  HIT:          0  MISS:          0
LLC TOTAL     ACCESS:         32  HIT:          0  MISS:         32
LLC LOAD      ACCESS:         32  HIT:          0  MISS:         32
LLC RFO       ACCESS:          0  HIT:          0  MISS:          0
LLC PREFETCH  ACCESS:          0  HIT:          0  MISS:          0
LLC WRITEBACK ACCESS:          0  HIT:          0  MISS:          0

CPU 2 cumulative IPC: 1.95804 instructions: 195804 cycles: 100000
cpu2_DTLB TOTAL     ACCESS:      35258  HIT:      35123  MISS:        135
cpu2_DTLB LOAD      ACCESS:      19444  HIT:      19389  MISS:         55
cpu2_DTLB RFO       ACCESS:      15814  HIT:      15734  MISS:         80
cpu2_DTLB PREFETCH  ACCESS:          0  HIT:          0  MISS:          0
cpu2_DTLB WRITEBACK ACCESS:          0  HIT:          0  MISS:          0
cpu2_ITLB TOTAL     ACCESS:      17266  HIT:      17266  MISS:          0
cpu2_ITLB LOAD      ACCESS:      17266  HIT:      17266  MISS:          0
cpu2_ITLB RFO       ACCESS:          0  HIT:          0  MISS:          0
cpu2_ITLB PREFETCH  ACCESS:          0  HIT:          0  MISS:          0
cpu2_ITLB WRITEBACK ACCESS:          0  HIT:          0  MISS:          0
cpu2_L1I TOTAL     ACCESS:       5148  HIT:       5148  MISS:          0
cpu2_L1I LOAD      ACCESS:       5148  HIT:       5148  MISS:          0
cpu2_L1I RFO       ACCESS:          0  HIT:          0  MISS:          0
cpu2_L1I PREFETCH  ACCESS:          0  HIT:          0  MISS:          0
cpu2_L1I WRITEBACK ACCESS:          0  HIT:          0  MISS:          0
cpu2_STLB TOTAL     ACCESS:        135  HIT:        126  MISS:          9
cpu2_STLB LOAD      ACCESS:         55  HIT:         46  MISS:          9
cpu2_STLB RFO       ACCESS:         80  HIT:         80  MISS:          0
cpu2_STLB PREFETCH  ACCESS:          0  HIT:          0  MISS:          0
cpu2_STLB WRITEBACK ACCESS:          0  HIT:          0  MISS:          0
cpu2_L1D TOTAL     ACCESS:      63491  HIT:      63458  MISS:         33
cpu2_L1D LOAD      ACCESS:      22062  HIT:      22029  MISS:         33
cpu2_L1D RFO       ACCESS:      41420  HIT:      41420  MISS:          0
cpu2_L1D PREFETCH  ACCESS:          0  HIT:          0  MISS:          0
cpu2_L1D WRITEBACK ACCESS:          0  HIT:          0  MISS:          0
cpu2_L2C TOTAL     ACCESS:         33  HIT:          0  MISS:         33
cpu2_L2C LOAD      ACCESS:         33  HIT:          0  MISS:         33
cpu2_L2C RFO       ACCESS:          0  HIT:          0  MISS:          0
cpu2_L2C PREFETCH  ACCESS:          0  HIT:          0  MISS:          0
cpu2_L2C WRITEBACK ACCESS:          0  HIT:          0  MISS:          0
LLC TOTAL     ACCESS:         33  HIT:          0  MISS:         33
LLC LOAD      ACCESS:         33  HIT:          0  MISS:         33
LLC RFO       ACCESS:          0  HIT:          0  MISS:          0
LLC PREFETCH  ACCESS:          0  HIT:          0  MISS:          0
LLC WRITEBACK ACCESS:          0  HIT:          0  MISS:          0

CPU 3 cumulative IPC: 1.92541 instructions: 192541 cycles: 100000
cpu3_DTLB TOTAL     ACCESS:      35419  HIT:      35284  MISS:        135
cpu3_DTLB LOAD      ACCESS:      19752  HIT:      19697  MISS:         55
cpu3_DTLB RFO       ACCESS:      15667  HIT:      15587  MISS:         80
cpu3_DTLB PREFETCH  ACCESS:          0  HIT:          0  MISS:          0
cpu3_DTLB WRITEBACK ACCESS:          0  HIT:          0  MISS:          0
cpu3_ITLB TOTAL     ACCESS:      16887  HIT:      16887  MISS:          0
cpu3_ITLB LOAD      ACCESS:      16887  HIT:      16887  MISS:          0
cpu3_ITLB RFO       ACCESS:          0  HIT:          0  MISS:          0
cpu3_ITLB PREFETCH  ACCESS:          0  HIT:          0  MISS:          0
cpu3_ITLB WRITEBACK ACCESS:          0  HIT:          0  MISS:          0
cpu3_L1I TOTAL     ACCESS:       5082  HIT:       5082  MISS:          0
cpu3_L1I LOAD      ACCESS:       5082  HIT:       5082  MISS:          0
cpu3_L1I RFO       ACCESS:          0  HIT:          0  MISS:          0
cpu3_L1I PREFETCH  ACCESS:          0  HIT:          0  MISS:          0
cpu3_L1I WRITEBACK ACCESS:          0  HIT:          0  MISS:          0
cpu3_STLB TOTAL     ACCESS:        135  HIT:        126  MISS:          9
cpu3_STLB LOAD      ACCESS:         55  HIT:         46  MISS:          9
cpu3_STLB RFO       ACCESS:         80  HIT:         80  MISS:          0
cpu3_STLB PREFETCH  ACCESS:          0  HIT:          0  MISS:          0
cpu3_STLB WRITEBACK ACCESS:          0  HIT:          0  MISS:          0
cpu3_L1D TOTAL     ACCESS:      62530  HIT:      62498  MISS:         32
cpu3_L1D LOAD      ACCESS:      21788  HIT:      21756  MISS:         32
cpu3_L1D RFO       ACCESS:      40733  HIT:      40733  MISS:          0
cpu3_L1D PREFETCH  ACCESS:          0  HIT:          0  MISS:          0
cpu3_L1D WRITEBACK ACCESS:          0  HIT:          0  MISS:          0
cpu3_L2C TOTAL     ACCESS:         32  HIT:          0  MISS:         32
cpu3_L2C LOAD      ACCESS:         32  HIT:          0  MISS:         32
cpu3_L2C RFO       ACCESS:          0  HIT:          0  MISS:          0
cpu3_L2C PREFETCH  ACCESS:          0  HIT:          0  MISS:          0
cpu3_L2C WRITEBACK ACCESS:          0  HIT:          0  MISS:          0
LLC TOTAL     ACCESS:         32  HIT:          0  MISS:         32
LLC LOAD      ACCESS:         32  HIT:          0  MISS:         32
LLC RFO       ACCESS:          0  HIT:          0  MISS:          0
LLC PREFETCH  ACCESS:          0  HIT:          0  MISS:          0
LLC WRITEBACK ACCESS:          0  HIT:          0  MISS:          0

Region of Interest Statistics

CPU 0 cumulative IPC: 1.96192 instructions: 196192 cycles: 100000
cpu0_DTLB TOTAL     ACCESS:      36062  HIT:      35927  MISS:        135
cpu0_DTLB LOAD      ACCESS:      20111  HIT:      20056  MISS:         55
cpu0_DTLB RFO       ACCESS:      15951  HIT:      15871  MISS:         80
cpu0_DTLB PREFETCH  ACCESS:          0  HIT:          0  MISS:          0
cpu0_DTLB WRITEBACK ACCESS:          0  HIT:          0  MISS:          0
cpu0_DTLB TRANSLATION ACCESS:          0  HIT:          0  MISS:          0
cpu0_DTLB PREFETCH  REQUESTED:          0  ISSUED:          0  USEFUL:          0  USELESS:          0
cpu0_DTLB AVERAGE MISS LATENCY: 22.4593 cycles
cpu0_ITLB TOTAL     ACCESS:      17907  HIT:      17907  MISS:          0
cpu0_ITLB LOAD      ACCESS:      17907  HIT:      17907  MISS:          0
cpu0_ITLB RFO       ACCESS:          0  HIT:          0  MISS:          0
cpu0_ITLB PREFETCH  ACCESS:          0  HIT:          0  MISS:          0
cpu0_ITLB WRITEBACK ACCESS:          0  HIT:          0  MISS:          0
cpu0_ITLB TRANSLATION ACCESS:          0  HIT:          0  MISS:          0
cpu0_ITLB PREFETCH  REQUESTED:          0  ISSUED:          0  USEFUL:          0  USELESS:          0
cpu0_ITLB AVERAGE MISS LATENCY: -nan cycles
cpu0_L1I TOTAL     ACCESS:       5351  HIT:       5351  MISS:          0
cpu0_L1I LOAD      ACCESS:       5351  HIT:       5351  MISS:          0
cpu0_L1I RFO       ACCESS:          0  HIT:          0  MISS:          0
cpu0_L1I PREFETCH  ACCESS:          0  HIT:          0  MISS:          0
cpu0_L1I WRITEBACK ACCESS:          0  HIT:          0  MISS:          0
cpu0_L1I TRANSLATION ACCESS:          0  HIT:          0  MISS:          0
cpu0_L1I PREFETCH  REQUESTED:          0  ISSUED:          0  USEFUL:          0  USELESS:          0
cpu0_L1I AVERAGE MISS LATENCY: -nan cycles
cpu0_STLB TOTAL     ACCESS:        135  HIT:        126  MISS:          9
cpu0_STLB LOAD      ACCESS:         55  HIT:         46  MISS:          9
cpu0_STLB RFO       ACCESS:         80  HIT:         80  MISS:          0
cpu0_STLB PREFETCH  ACCESS:          0  HIT:          0  MISS:          0
cpu0_STLB WRITEBACK ACCESS:          0  HIT:          0  MISS:          0
cpu0_STLB TRANSLATION ACCESS:          0  HIT:          0  MISS:          0
cpu0_STLB PREFETCH  REQUESTED:          0  ISSUED:          0  USEFUL:          0  USELESS:          0
cpu0_STLB AVERAGE MISS LATENCY: 208.222 cycles
cpu0_L1D TOTAL     ACCESS:      63781  HIT:      63748  MISS:         33
cpu0_L1D LOAD      ACCESS:      22254  HIT:      22221  MISS:         33
cpu0_L1D RFO       ACCESS:      41518  HIT:      41518  MISS:          0
cpu0_L1D PREFETCH  ACCESS:          0  HIT:          0  MISS:          0
cpu0_L1D WRITEBACK ACCESS:          0  HIT:          0  MISS:          0
cpu0_L1D TRANSLATION ACCESS:          9  HIT:          9  MISS:          0
cpu0_L1D PREFETCH  REQUESTED:          0  ISSUED:          0  USEFUL:          0  USELESS:          0
cpu0_L1D AVERAGE MISS LATENCY: 195.364 cycles
cpu0_L2C TOTAL     ACCESS:         33  HIT:          0  MISS:         33
cpu0_L2C LOAD      ACCESS:         33  HIT:          0  MISS:         33
cpu0_L2C RFO       ACCESS:          0  HIT:          0  MISS:          0
cpu0_L2C PREFETCH  ACCESS:          0  HIT:          0  MISS:          0
cpu0_L2C WRITEBACK ACCESS:          0  HIT:          0  MISS:          0
cpu0_L2C TRANSLATION ACCESS:          0  HIT:          0  MISS:          0
cpu0_L2C PREFETCH  REQUESTED:          0  ISSUED:          0  USEFUL:          0  USELESS:          0
cpu0_L2C AVERAGE MISS LATENCY: 183.97 cycles
LLC TOTAL     ACCESS:         33  HIT:          0  MISS:         33
LLC LOAD      ACCESS:         33  HIT:          0  MISS:         33
LLC RFO       ACCESS:          0  HIT:          0  MISS:          0
LLC PREFETCH  ACCESS:          0  HIT:          0  MISS:          0
LLC WRITEBACK ACCESS:          0  HIT:          0  MISS:          0
LLC TRANSLATION ACCESS:          0  HIT:          0  MISS:          0
LLC PREFETCH  REQUESTED:          0  ISSUED:          0  USEFUL:          0  USELESS:          0
LLC AVERAGE MISS LATENCY: 715.182 cycles

CPU 1 cumulative IPC: 1.92403 instructions: 192403 cycles: 100000
cpu1_DTLB TOTAL     ACCESS:      34121  HIT:      33986  MISS:        135
cpu1_DTLB LOAD      ACCESS:      18875  HIT:      18820  MISS:         55
cpu1_DTLB RFO       ACCESS:      15246  HIT:      15166  MISS:         80
cpu1_DTLB PREFETCH  ACCESS:          0  HIT:          0  MISS:          0
cpu1_DTLB WRITEBACK ACCESS:          0  HIT:          0  MISS:          0
cpu1_DTLB TRANSLATION ACCESS:          0  HIT:          0  MISS:          0
cpu1_DTLB PREFETCH  REQUESTED:          0  ISSUED:          0  USEFUL:          0  USELESS:          0
cpu1_DTLB AVERAGE MISS LATENCY: 22.6148 cycles
cpu1_ITLB TOTAL     ACCESS:      16780  HIT:      16780  MISS:          0
cpu1_ITLB LOAD      ACCESS:      16780  HIT:      16780  MISS:          0
cpu1_ITLB RFO       ACCESS:          0  HIT:          0  MISS:          0
cpu1_ITLB PREFETCH  ACCESS:          0  HIT:          0  MISS:          0
cpu1_ITLB WRITEBACK ACCESS:          0  HIT:          0  MISS:          0
cpu1_ITLB TRANSLATION ACCESS:          0  HIT:          0  MISS:          0
cpu1_ITLB PREFETCH  REQUESTED:          0  ISSUED:          0  USEFUL:          0  USELESS:          0
cpu1_ITLB AVERAGE MISS LATENCY: -nan cycles
cpu1_L1I TOTAL     ACCESS:       5059  HIT:       5059  MISS:          0
cpu1_L1I LOAD      ACCESS:       5059  HIT:       5059  MISS:          0
cpu1_L1I RFO       ACCESS:          0  HIT:          0  MISS:          0
cpu1_L1I PREFETCH  ACCESS:          0  HIT:          0  MISS:          0
cpu1_L1I WRITEBACK ACCESS:          0  HIT:          0  MISS:          0
cpu1_L1I TRANSLATION ACCESS:          0  HIT:          0  MISS:          0
cpu1_L1I PREFETCH  REQUESTED:          0  ISSUED:          0  USEFUL:          0  USELESS:          0
cpu1_L1I AVERAGE MISS LATENCY: -nan cycles
cpu1_STLB TOTAL     ACCESS:        135  HIT:        126  MISS:          9
cpu1_STLB LOAD      ACCESS:         55  HIT:         46  MISS:          9
cpu1_STLB RFO       ACCESS:         80  HIT:         80  MISS:          0
cpu1_STLB PREFETCH  ACCESS:          0  HIT:          0  MISS:          0
cpu1_STLB WRITEBACK ACCESS:          0  HIT:          0  MISS:          0
cpu1_STLB TRANSLATION ACCESS:          0  HIT:          0  MISS:          0
cpu1_STLB PREFETCH  REQUESTED:          0  ISSUED:          0  USEFUL:          0  USELESS:          0
cpu1_STLB AVERAGE MISS LATENCY: 207.889 cycles
cpu1_L1D TOTAL     ACCESS:      62376  HIT:      62344  MISS:         32
cpu1_L1D LOAD      ACCESS:      21653  HIT:      21621  MISS:         32
cpu1_L1D RFO       ACCESS:      40714  HIT:      40714  MISS:          0
cpu1_L1D PREFETCH  ACCESS:          0  HIT:          0  MISS:          0
cpu1_L1D WRITEBACK ACCESS:          0  HIT:          0  MISS:          0
cpu1_L1D TRANSLATION ACCESS:          9  HIT:          9  MISS:          0
cpu1_L1D PREFETCH  REQUESTED:          0  ISSUED:          0  USEFUL:          0  USELESS:          0
cpu1_L1D AVERAGE MISS LATENCY: 203.406 cycles
cpu1_L2C TOTAL     ACCESS:         32  HIT:          0  MISS:         32
cpu1_L2C LOAD      ACCESS:         32  HIT:          0  MISS:         32
cpu1_L2C RFO       ACCESS:          0  HIT:          0  MISS:          0
cpu1_L2C PREFETCH  ACCESS:          0  HIT:          0  MISS:          0
cpu1_L2C WRITEBACK ACCESS:          0  HIT:          0  MISS:          0
cpu1_L2C TRANSLATION ACCESS:          0  HIT:          0  MISS:          0
cpu1_L2C PREFETCH  REQUESTED:          0  ISSUED:          0  USEFUL:          0  USELESS:          0
cpu1_L2C AVERAGE MISS LATENCY: 192.188 cycles
LLC TOTAL     ACCESS:         32  HIT:          0  MISS:         32
LLC LOAD      ACCESS:         32  HIT:          0  MISS:         32
LLC RFO       ACCESS:          0  HIT:          0  MISS:          0
LLC PREFETCH  ACCESS:          0  HIT:          0  MISS:          0
LLC WRITEBACK ACCESS:          0  HIT:          0  MISS:          0
LLC TRANSLATION ACCESS:          0  HIT:          0  MISS:          0
LLC PREFETCH  REQUESTED:          0  ISSUED:          0  USEFUL:          0  USELESS:          0
LLC AVERAGE MISS LATENCY: 737.531 cycles

CPU 2 cumulative IPC: 1.95804 instructions: 195804 cycles: 100000
cpu2_DTLB TOTAL     ACCESS:      35258  HIT:      35123  MISS:        135
cpu2_DTLB LOAD      ACCESS:      19444  HIT:      19389  MISS:         55
cpu2_DTLB RFO       ACCESS:      15814  HIT:      15734  MISS:         80
cpu2_DTLB PREFETCH  ACCESS:          0  HIT:          0  MISS:          0
cpu2_DTLB WRITEBACK ACCESS:          0  HIT:          0  MISS:          0
cpu2_DTLB TRANSLATION ACCESS:          0  HIT:          0  MISS:          0
cpu2_DTLB PREFETCH  REQUESTED:          0  ISSUED:          0  USEFUL:          0  USELESS:          0
cpu2_DTLB AVERAGE MISS LATENCY: 22.7556 cycles
cpu2_ITLB TOTAL     ACCESS:      17266  HIT:      17266  MISS:          0
cpu2_ITLB LOAD      ACCESS:      17266  HIT:      17266  MISS:          0
cpu2_ITLB RFO       ACCESS:          0  HIT:          0  MISS:          0
cpu2_ITLB PREFETCH  ACCESS:          0  HIT:          0  MISS:          0
cpu2_ITLB WRITEBACK ACCESS:          0  HIT:          0  MISS:          0
cpu2_ITLB TRANSLATION ACCESS:          0  HIT:          0  MISS:          0
cpu2_ITLB PREFETCH  REQUESTED:          0  ISSUED:          0  USEFUL:          0  USELESS:          0
cpu2_ITLB AVERAGE MISS LATENCY: -nan cycles
cpu2_L1I TOTAL     ACCESS:       5148  HIT:       5148  MISS:          0
cpu2_L1I LOAD      ACCESS:       5148  HIT:       5148  MISS:          0
cpu2_L1I RFO       ACCESS:          0  HIT:          0  MISS:          0
cpu2_L1I PREFETCH  ACCESS:          0  HIT:          0  MISS:          0
cpu2_L1I WRITEBACK ACCESS:          0  HIT:          0  MISS:          0
cpu2_L1I TRANSLATION ACCESS:          0  HIT:          0  MISS:          0
cpu2_L1I PREFETCH  REQUESTED:          0  ISSUED:          0  USEFUL:          0  USELESS:          0
cpu2_L1I AVERAGE MISS LATENCY: -nan cycles
cpu2_STLB TOTAL     ACCESS:        135  HIT:        126  MISS:          9
cpu2_STLB LOAD      ACCESS:         55  HIT:         46  MISS:          9
cpu2_STLB RFO       ACCESS:         80  HIT:         80  MISS:          0
cpu2_STLB PREFETCH  ACCESS:          0  HIT:          0  MISS:          0
cpu2_STLB WRITEBACK ACCESS:          0  HIT:          0  MISS:          0
cpu2_STLB TRANSLATION ACCESS:          0  HIT:          0  MISS:          0
cpu2_STLB PREFETCH  REQUESTED:          0  ISSUED:          0  USEFUL:          0  USELESS:          0
cpu2_STLB AVERAGE MISS LATENCY: 208 cycles
cpu2_L1D TOTAL     ACCESS:      63491  HIT:      63458  MISS:         33
cpu2_L1D LOAD      ACCESS:      22062  HIT:      22029  MISS:         33
cpu2_L1D RFO       ACCESS:      41420  HIT:      41420  MISS:          0
cpu2_L1D PREFETCH  ACCESS:          0  HIT:          0  MISS:          0
cpu2_L1D WRITEBACK ACCESS:          0  HIT:          0  MISS:          0
cpu2_L1D TRANSLATION ACCESS:          9  HIT:          9  MISS:          0
cpu2_L1D PREFETCH  REQUESTED:          0  ISSUED:          0  USEFUL:          0  USELESS:          0
cpu2_L1D AVERAGE MISS LATENCY: 201.758 cycles
cpu2_L2C TOTAL     ACCESS:         33  HIT:          0  MISS:         33
cpu2_L2C LOAD      ACCESS:         33  HIT:          0  MISS:         33
cpu2_L2C RFO       ACCESS:          0  HIT:          0  MISS:          0
cpu2_L2C PREFETCH  ACCESS:          0  HIT:          0  MISS:          0
cpu2_L2C WRITEBACK ACCESS:          0  HIT:          0  MISS:          0
cpu2_L2C TRANSLATION ACCESS:          0  HIT:          0  MISS:          0
cpu2_L2C PREFETCH  REQUESTED:          0  ISSUED:          0  USEFUL:          0  USELESS:          0
cpu2_L2C AVERAGE MISS LATENCY: 190.636 cycles
LLC TOTAL     ACCESS:         33  HIT:          0  MISS:         33
LLC LOAD      ACCESS:         33  HIT:          0  MISS:         33
LLC RFO       ACCESS:          0  HIT:          0  MISS:          0
LLC PREFETCH  ACCESS:          0  HIT:          0  MISS:          0
LLC WRITEBACK ACCESS:          0  HIT:          0  MISS:          0
LLC TRANSLATION ACCESS:          0  HIT:          0  MISS:          0
LLC PREFETCH  REQUESTED:          0  ISSUED:          0  USEFUL:          0  USELESS:          0
LLC AVERAGE MISS LATENCY: 715.182 cycles

CPU 3 cumulative IPC: 1.92541 instructions: 192541 cycles: 100000
cpu3_DTLB TOTAL     ACCESS:      35419  HIT:      35284  MISS:        135
cpu3_DTLB LOAD      ACCESS:      19752  HIT:      19697  MISS:         55
cpu3_DTLB RFO       ACCESS:      15667  HIT:      15587  MISS:         80
cpu3_DTLB PREFETCH  ACCESS:          0  HIT:          0  MISS:          0
cpu3_DTLB WRITEBACK ACCESS:          0  HIT:          0  MISS:          0
cpu3_DTLB TRANSLATION ACCESS:          0  HIT:          0  MISS:          0
cpu3_DTLB PREFETCH  REQUESTED:          0  ISSUED:          0  USEFUL:          0  USELESS:          0
cpu3_DTLB AVERAGE MISS LATENCY: 22.8741 cycles
cpu3_ITLB TOTAL     ACCESS:      16887  HIT:      16887  MISS:          0
cpu3_ITLB LOAD      ACCESS:      16887  HIT:      16887  MISS:          0
cpu3_ITLB RFO       ACCESS:          0  HIT:          0  MISS:          0
cpu3_ITLB PREFETCH  ACCESS:          0  HIT:          0  MISS:          0
cpu3_ITLB WRITEBACK ACCESS:          0  HIT:          0  MISS:          0
cpu3_ITLB TRANSLATION ACCESS:          0  HIT:          0  MISS:          0
cpu3_ITLB PREFETCH  REQUESTED:          0  ISSUED:          0  USEFUL:          0  USELESS:          0
cpu3_ITLB AVERAGE MISS LATENCY: -nan cycles
cpu3_L1I TOTAL     ACCESS:       5082  HIT:       5082  MISS:          0
cpu3_L1I LOAD      ACCESS:       5082  HIT:       5082  MISS:          0
cpu3_L1I RFO       ACCESS:          0  HIT:          0  MISS:          0
cpu3_L1I PREFETCH  ACCESS:          0  HIT:          0  MISS:          0
cpu3_L1I WRITEBACK ACCESS:          0  HIT:          0  MISS:          0
cpu3_L1I TRANSLATION ACCESS:          0  HIT:          0  MISS:          0
cpu3_L1I PREFETCH  REQUESTED:          0  ISSUED:          0  USEFUL:          0  USELESS:          0
cpu3_L1I AVERAGE MISS LATENCY: -nan cycles
cpu3_STLB TOTAL     ACCESS:        135  HIT:        126  MISS:          9
cpu3_STLB LOAD      ACCESS:         55  HIT:         46  MISS:          9
cpu3_STLB RFO       ACCESS:         80  HIT:         80  MISS:          0
cpu3_STLB PREFETCH  ACCESS:          0  HIT:          0  MISS:          0
cpu3_STLB WRITEBACK ACCESS:          0  HIT:          0  MISS:          0
cpu3_STLB TRANSLATION ACCESS:          0  HIT:          0  MISS:          0
cpu3_STLB PREFETCH  REQUESTED:          0  ISSUED:          0  USEFUL:          0  USELESS:          0
cpu3_STLB AVERAGE MISS LATENCY: 208.111 cycles
cpu3_L1D TOTAL     ACCESS:      62530  HIT:      62498  MISS:         32
cpu3_L1D LOAD      ACCESS:      21788  HIT:      21756  MISS:         32
cpu3_L1D RFO       ACCESS:      40733  HIT:      40733  MISS:          0
cpu3_L1D PREFETCH  ACCESS:          0  HIT:          0  MISS:          0
cpu3_L1D WRITEBACK ACCESS:          0  HIT:          0  MISS:          0
cpu3_L1D TRANSLATION ACCESS:          9  HIT:          9  MISS:          0
cpu3_L1D PREFETCH  REQUESTED:          0  ISSUED:          0  USEFUL:          0  USELESS:          0
cpu3_L1D AVERAGE MISS LATENCY: 255.5 cycles
cpu3_L2C TOTAL     ACCESS:         32  HIT:          0  MISS:         32
cpu3_L2C LOAD      ACCESS:         32  HIT:          0  MISS:         32
cpu3_L2C RFO       ACCESS:          0  HIT:          0  MISS:          0
cpu3_L2C PREFETCH  ACCESS:          0  HIT:          0  MISS:          0
cpu3_L2C WRITEBACK ACCESS:          0  HIT:          0  MISS:          0
cpu3_L2C TRANSLATION ACCESS:          0  HIT:          0  MISS:          0
cpu3_L2C PREFETCH  REQUESTED:          0  ISSUED:          0  USEFUL:          0  USELESS:          0
cpu3_L2C AVERAGE MISS LATENCY: 244.25 cycles
LLC TOTAL     ACCESS:         32  HIT:          0  MISS:         32
LLC LOAD      ACCESS:         32  HIT:          0  MISS:         32
LLC RFO       ACCESS:          0  HIT:          0  MISS:          0
LLC PREFETCH  ACCESS:          0  HIT:          0  MISS:          0
LLC WRITEBACK ACCESS:          0  HIT:          0  MISS:          0
LLC TRANSLATION ACCESS:          0  HIT:          0  MISS:          0
LLC PREFETCH  REQUESTED:          0  ISSUED:          0  USEFUL:          0  USELESS:          0
LLC AVERAGE MISS LATENCY: 737.531 cycles

DRAM Statistics
 CHANNEL 0
 RQ ROW_BUFFER_HIT:          0  ROW_BUFFER_MISS:        130
 DBUS AVG_CONGESTED_CYCLE:          4
 WQ ROW_BUFFER_HIT:          0  ROW_BUFFER_MISS:          0  FULL:          0


CPU 0 Branch Prediction Accuracy: 98.0614% MPKI: 2.86127 Average ROB Occupancy at Mispredict: 198.593
Branch type MPKI
BRANCH_DIRECT_JUMP: 0
BRANCH_INDIRECT: 0
BRANCH_CONDITIONAL: 2.86454
BRANCH_DIRECT_CALL: 0
BRANCH_INDIRECT_CALL: 0
BRANCH_RETURN: 0


CPU 1 Branch Prediction Accuracy: 98.0501% MPKI: 2.8755 Average ROB Occupancy at Mispredict: 199.554
Branch type MPKI
BRANCH_DIRECT_JUMP: 0
BRANCH_INDIRECT: 0
BRANCH_CONDITIONAL: 2.87937
BRANCH_DIRECT_CALL: 0
BRANCH_INDIRECT_CALL: 0
BRANCH_RETURN: 0


CPU 2 Branch Prediction Accuracy: 98.055% MPKI: 2.8684 Average ROB Occupancy at Mispredict: 198.744
Branch type MPKI
BRANCH_DIRECT_JUMP: 0
BRANCH_INDIRECT: 0
BRANCH_CONDITIONAL: 2.87022
BRANCH_DIRECT_CALL: 0
BRANCH_INDIRECT_CALL: 0
BRANCH_RETURN: 0


CPU 3 Branch Prediction Accuracy: 98.0532% MPKI: 2.87207 Average ROB Occupancy at Mispredict: 198.253
Branch type MPKI
BRANCH_DIRECT_JUMP: 0
BRANCH_INDIRECT: 0
BRANCH_CONDITIONAL: 2.87212
BRANCH_DIRECT_CALL: 0
BRANCH_INDIRECT_CALL: 0
BRANCH_RETURN: 0

(Simulation time: 0 hr 0 min 5 sec) 


ChampSim completed all CPUs

Total Simulation Statistics (not including warmup)

CPU 0 cumulative IPC: 1.33302 instructions: 266605 cycles: 200000
cpu0_DTLB TOTAL     ACCESS:      13576  HIT:      13488  MISS:         88
cpu0_DTLB LOAD      ACCESS:       7766  HIT:       7683  MISS:         83
cpu0_DTLB RFO       ACCESS:       5810  HIT:       5805  MISS:          5
cpu0_DTLB PREFETCH  ACCESS:          0  HIT:          0  MISS:          0
cpu0_DTLB WRITEBACK ACCESS:          0  HIT:          0  MISS:          0
cpu0_ITLB TOTAL     ACCESS:       7485  HIT:       7473  MISS:         12
cpu0_ITLB LOAD      ACCESS:       7485  HIT:       7473  MISS:         12
cpu0_ITLB RFO       ACCESS:          0  HIT:          0  MISS:          0
cpu0_ITLB PREFETCH  ACCESS:          0  HIT:          0  MISS:          0
cpu0_ITLB WRITEBACK ACCESS:          0  HIT:          0  MISS:          0
cpu0_L1I TOTAL     ACCESS:       1365  HIT:       1233  MISS:        132
cpu0_L1I LOAD      ACCESS:       1365  HIT:       1233  MISS:        132
cpu0_L1I RFO       ACCESS:          0  HIT:          0  MISS:          0
cpu0_L1I PREFETCH  ACCESS:          0  HIT:          0  MISS:          0
cpu0_L1I WRITEBACK ACCESS:          0  HIT:          0  MISS:          0
cpu0_STLB TOTAL     ACCESS:        100  HIT:         21  MISS:         79
cpu0_STLB LOAD      ACCESS:         95  HIT:         19  MISS:         76
cpu0_STLB RFO       ACCESS:          5  HIT:          2  MISS:          3
cpu0_STLB PREFETCH  ACCESS:          0  HIT:          0  MISS:          0
cpu0_STLB WRITEBACK ACCESS:          0  HIT:          0  MISS:          0
cpu0_L1D TOTAL     ACCESS:      23021  HIT:      22863  MISS:        158
cpu0_L1D LOAD      ACCESS:       8482  HIT:       8344  MISS:        138
cpu0_L1D RFO       ACCESS:      14461  HIT:      14443  MISS:         18
cpu0_L1D PREFETCH  ACCESS:          0  HIT:          0  MISS:          0
cpu0_L1D WRITEBACK ACCESS:          0  HIT:          0  MISS:          0
cpu0_L2C TOTAL     ACCESS:        290  HIT:          0  MISS:        290
cpu0_L2C LOAD      ACCESS:        270  HIT:          0  MISS:        270
cpu0_L2C RFO       ACCESS:         18  HIT:          0  MISS:         18
cpu0_L2C PREFETCH  ACCESS:          0  HIT:          0  MISS:          0
cpu0_L2C WRITEBACK ACCESS:          0  HIT:          0  MISS:          0
LLC TOTAL     ACCESS:        290  HIT:          0  MISS:        290
LLC LOAD      ACCESS:        270  HIT:          0  MISS:        270
LLC RFO       ACCESS:         18  HIT:          0  MISS:         18
LLC PREFETCH  ACCESS:          0  HIT:          0  MISS:          0
LLC WRITEBACK ACCESS:          0  HIT:          0  MISS:          0

CPU 1 cumulative IPC: 1.3301 instructions: 266019 cycles: 200000
cpu1_DTLB TOTAL     ACCESS:      13506  HIT:      13451  MISS:         55
cpu1_DTLB LOAD      ACCESS:       7602  HIT:       7549  MISS:         53
cpu1_DTLB RFO       ACCESS:       5904  HIT:       5902  MISS:          2
cpu1_DTLB PREFETCH  ACCESS:          0  HIT:          0  MISS:          0
cpu1_DTLB WRITEBACK ACCESS:          0  HIT:          0  MISS:          0
cpu1_ITLB TOTAL     ACCESS:       7423  HIT:       7411  MISS:         12
cpu1_ITLB LOAD      ACCESS:       7423  HIT:       7411  MISS:         12
cpu1_ITLB RFO       ACCESS:          0  HIT:          0  MISS:          0
cpu1_ITLB PREFETCH  ACCESS:          0  HIT:          0  MISS:          0
cpu1_ITLB WRITEBACK ACCESS:          0  HIT:          0  MISS:          0
cpu1_L1I TOTAL     ACCESS:       1441  HIT:       1314  MISS:        127
cpu1_L1I LOAD      ACCESS:       1441  HIT:       1314  MISS:        127
cpu1_L1I RFO       ACCESS:          0  HIT:          0  MISS:          0
cpu1_L1I PREFETCH  ACCESS:          0  HIT:          0  MISS:          0
cpu1_L1I WRITEBACK ACCESS:          0  HIT:          0  MISS:          0
cpu1_STLB TOTAL     ACCESS:         67  HIT:          8  MISS:         59
cpu1_STLB LOAD      ACCESS:         65  HIT:          8  MISS:         57
cpu1_STLB RFO       ACCESS:          2  HIT:          0  MISS:          2
cpu1_STLB PREFETCH  ACCESS:          0  HIT:          0  MISS:          0
cpu1_STLB WRITEBACK ACCESS:          0  HIT:          0  MISS:          0
cpu1_L1D TOTAL     ACCESS:      24045  HIT:      23926  MISS:        119
cpu1_L1D LOAD      ACCESS:       8761  HIT:       8654  MISS:        107
cpu1_L1D RFO       ACCESS:      15227  HIT:      15216  MISS:         11
cpu1_L1D PREFETCH  ACCESS:          0  HIT:          0  MISS:          0
cpu1_L1D WRITEBACK ACCESS:          0  HIT:          0  MISS:          0
cpu1_L2C TOTAL     ACCESS:        246  HIT:          0  MISS:        246
cpu1_L2C LOAD      ACCESS:        234  HIT:          0  MISS:        234
cpu1_L2C RFO       ACCESS:         11  HIT:          0  MISS:         11
cpu1_L2C PREFETCH  ACCESS:          0  HIT:          0  MISS:          0
cpu1_L2C WRITEBACK ACCESS:          0  HIT:          0  MISS:          0
LLC TOTAL     ACCESS:        246  HIT:          0  MISS:        246
LLC LOAD      ACCESS:        234  HIT:          0  MISS:        234
LLC RFO       ACCESS:         11  HIT:          0  MISS:         11
LLC PREFETCH  ACCESS:          0  HIT:          0  MISS:          0
LLC WRITEBACK ACCESS:          0  HIT:          0  MISS:          0

CPU 2 cumulative IPC: 1.33178 instructions: 266357 cycles: 200000
cpu2_DTLB TOTAL     ACCESS:      13252  HIT:      13185  MISS:         67
cpu2_DTLB LOAD      ACCESS:       7503  HIT:       7439  MISS:         64
cpu2_DTLB RFO       ACCESS:       5749  HIT:       5746  MISS:          3
cpu2_DTLB PREFETCH  ACCESS:          0  HIT:          0  MISS:          0
cpu2_DTLB WRITEBACK ACCESS:          0  HIT:          0  MISS:          0
cpu2_ITLB TOTAL     ACCESS:       7242  HIT:       7230  MISS:         12
cpu2_ITLB LOAD      ACCESS:       7242  HIT:       7230  MISS:         12
cpu2_ITLB RFO       ACCESS:          0  HIT:          0  MISS:          0
cpu2_ITLB PREFETCH  ACCESS:          0  HIT:          0  MISS:          0
cpu2_ITLB WRITEBACK ACCESS:          0  HIT:          0  MISS:          0
cpu2_L1I TOTAL     ACCESS:       1370  HIT:       1238  MISS:        132
cpu2_L1I LOAD      ACCESS:       1370  HIT:       1238  MISS:        132
cpu2_L1I RFO       ACCESS:          0  HIT:          0  MISS:          0
cpu2_L1I PREFETCH  ACCESS:          0  HIT:          0  MISS:          0
cpu2_L1I WRITEBACK ACCESS:          0  HIT:          0  MISS:          0
cpu2_STLB TOTAL     ACCESS:         79  HIT:         10  MISS:         69
cpu2_STLB LOAD      ACCESS:         76  HIT:         10  MISS:         66
cpu2_STLB RFO       ACCESS:          3  HIT:          0  MISS:          3
cpu2_STLB PREFETCH  ACCESS:          0  HIT:          0  MISS:          0
cpu2_STLB WRITEBACK ACCESS:          0  HIT:          0  MISS:          0
cpu2_L1D TOTAL     ACCESS:      23078  HIT:      22953  MISS:        125
cpu2_L1D LOAD      ACCESS:       8462  HIT:       8356  MISS:        106
cpu2_L1D RFO       ACCESS:      14547  HIT:      14529  MISS:         18
cpu2_L1D PREFETCH  ACCESS:          0  HIT:          0  MISS:          0
cpu2_L1D WRITEBACK ACCESS:          0  HIT:          0  MISS:          0
cpu2_L2C TOTAL     ACCESS:        257  HIT:          0  MISS:        257
cpu2_L2C LOAD      ACCESS:        238  HIT:          0  MISS:        238
cpu2_L2C RFO       ACCESS:         18  HIT:          0  MISS:         18
cpu2_L2C PREFETCH  ACCESS:          0  HIT:          0  MISS:          0
cpu2_L2C WRITEBACK ACCESS:          0  HIT:          0  MISS:          0
LLC TOTAL     ACCESS:        257  HIT:          0  MISS:        257
LLC LOAD      ACCESS:        238  HIT:          0  MISS:        238
LLC RFO       ACCESS:         18  HIT:          0  MISS:         18
LLC PREFETCH  ACCESS:          0  HIT:          0  MISS:          0
LLC WRITEBACK ACCESS:          0  HIT:          0  MISS:          0

CPU 3 cumulative IPC: 1.33134 instructions: 266268 cycles: 200000
cpu3_DTLB TOTAL     ACCESS:      14118  HIT:      14063  MISS:         55
cpu3_DTLB LOAD      ACCESS:       8040  HIT:       7987  MISS:         53
cpu3_DTLB RFO       ACCESS:       6078  HIT:       6076  MISS:          2
cpu3_DTLB PREFETCH  ACCESS:          0  HIT:          0  MISS:          0
cpu3_DTLB WRITEBACK ACCESS:          0  HIT:          0  MISS:          0
cpu3_ITLB TOTAL     ACCESS:       7525  HIT:       7513  MISS:         12
cpu3_ITLB LOAD      ACCESS:       7525  HIT:       7513  MISS:         12
cpu3_ITLB RFO       ACCESS:          0  HIT:          0  MISS:          0
cpu3_ITLB PREFETCH  ACCESS:          0  HIT:          0  MISS:          0
cpu3_ITLB WRITEBACK ACCESS:          0  HIT:          0  MISS:          0
cpu3_L1I TOTAL     ACCESS:       1438  HIT:       1313  MISS:        125
cpu3_L1I LOAD      ACCESS:       1438  HIT:       1313  MISS:        125
cpu3_L1I RFO       ACCESS:          0  HIT:          0  MISS:          0
cpu3_L1I PREFETCH  ACCESS:          0  HIT:          0  MISS:          0
cpu3_L1I WRITEBACK ACCESS:          0  HIT:          0  MISS:          0
cpu3_STLB TOTAL     ACCESS:         67  HIT:          8  MISS:         59
cpu3_STLB LOAD      ACCESS:         65  HIT:          8  MISS:         57
cpu3_STLB RFO       ACCESS:          2  HIT:          0  MISS:          2
cpu3_STLB PREFETCH  ACCESS:          0  HIT:          0  MISS:          0
cpu3_STLB WRITEBACK ACCESS:          0  HIT:          0  MISS:          0
cpu3_L1D TOTAL     ACCESS:      24131  HIT:      24012  MISS:        119
cpu3_L1D LOAD      ACCESS:       8826  HIT:       8719  MISS:        107
cpu3_L1D RFO       ACCESS:      15248  HIT:      15237  MISS:         11
cpu3_L1D PREFETCH  ACCESS:          0  HIT:          0  MISS:          0
cpu3_L1D WRITEBACK ACCESS:          0  HIT:          0  MISS:          0
cpu3_L2C TOTAL     ACCESS:        244  HIT:          0  MISS:        244
cpu3_L2C LOAD      ACCESS:        232  HIT:          0  MISS:        232
cpu3_L2C RFO       ACCESS:         11  HIT:          0  MISS:         11
cpu3_L2C PREFETCH  ACCESS:          0  HIT:          0  MISS:          0
cpu3_L2C WRITEBACK ACCESS:          0  HIT:          0  MISS:          0
LLC TOTAL     ACCESS:        244  HIT:          0  MISS:        244
LLC LOAD      ACCESS:        232  HIT:          0  MISS:        232
LLC RFO       ACCESS:         11  HIT:          0  MISS:         11
LLC PREFETCH  ACCESS:          0  HIT:          0  MISS:          0
LLC WRITEBACK ACCESS:          0  HIT:          0  MISS:          0

Region of Interest Statistics

CPU 0 cumulative IPC: 1.33302 instructions: 266605 cycles: 200000
cpu0_DTLB TOTAL     ACCESS:      13576  HIT:      13488  MISS:         88
cpu0_DTLB LOAD      ACCESS:       7766  HIT:       7683  MISS:         83
cpu0_DTLB RFO       ACCESS:       5810  HIT:       5805  MISS:          5
cpu0_DTLB PREFETCH  ACCESS:          0  HIT:          0  MISS:          0
cpu0_DTLB WRITEBACK ACCESS:          0  HIT:          0  MISS:          0
cpu0_DTLB TRANSLATION ACCESS:          0  HIT:          0  MISS:          0
cpu0_DTLB PREFETCH  REQUESTED:          0  ISSUED:          0  USEFUL:          0  USELESS:          0
cpu0_DTLB AVERAGE MISS LATENCY: 172.83 cycles
cpu0_ITLB TOTAL     ACCESS:       7485  HIT:       7473  MISS:         12
cpu0_ITLB LOAD      ACCESS:       7485  HIT:       7473  MISS:         12
cpu0_ITLB RFO       ACCESS:          0  HIT:          0  MISS:          0
cpu0_ITLB PREFETCH  ACCESS:          0  HIT:          0  MISS:          0
cpu0_ITLB WRITEBACK ACCESS:          0  HIT:          0  MISS:          0
cpu0_ITLB TRANSLATION ACCESS:          0  HIT:          0  MISS:          0
cpu0_ITLB PREFETCH  REQUESTED:          0  ISSUED:          0  USEFUL:          0  USELESS:          0
cpu0_ITLB AVERAGE MISS LATENCY: 217.333 cycles
cpu0_L1I TOTAL     ACCESS:       1365  HIT:       1233  MISS:        132
cpu0_L1I LOAD      ACCESS:       1365  HIT:       1233  MISS:        132
cpu0_L1I RFO       ACCESS:          0  HIT:          0  MISS:          0
cpu0_L1I PREFETCH  ACCESS:          0  HIT:          0  MISS:          0
cpu0_L1I WRITEBACK ACCESS:          0  HIT:          0  MISS:          0
cpu0_L1I TRANSLATION ACCESS:          0  HIT:          0  MISS:          0
cpu0_L1I PREFETCH  REQUESTED:          0  ISSUED:          0  USEFUL:          0  USELESS:          0
cpu0_L1I AVERAGE MISS LATENCY: 243.409 cycles
cpu0_STLB TOTAL     ACCESS:        100  HIT:         21  MISS:         79
cpu0_STLB LOAD      ACCESS:         95  HIT:         19  MISS:         76
cpu0_STLB RFO       ACCESS:          5  HIT:          2  MISS:          3
cpu0_STLB PREFETCH  ACCESS:          0  HIT:          0  MISS:          0
cpu0_STLB WRITEBACK ACCESS:          0  HIT:          0  MISS:          0
cpu0_STLB TRANSLATION ACCESS:          0  HIT:          0  MISS:          0
cpu0_STLB PREFETCH  REQUESTED:          0  ISSUED:          0  USEFUL:          0  USELESS:          0
cpu0_STLB AVERAGE MISS LATENCY: 214.57 cycles
cpu0_L1D TOTAL     ACCESS:      23021  HIT:      22863  MISS:        158
cpu0_L1D LOAD      ACCESS:       8482  HIT:       8344  MISS:        138
cpu0_L1D RFO       ACCESS:      14461  HIT:      14443  MISS:         18
cpu0_L1D PREFETCH  ACCESS:          0  HIT:          0  MISS:          0
cpu0_L1D WRITEBACK ACCESS:          0  HIT:          0  MISS:          0
cpu0_L1D TRANSLATION ACCESS:         78  HIT:         76  MISS:          2
cpu0_L1D PREFETCH  REQUESTED:          0  ISSUED:          0  USEFUL:          0  USELESS:          0
cpu0_L1D AVERAGE MISS LATENCY: 389.582 cycles
cpu0_L2C TOTAL     ACCESS:        290  HIT:          0  MISS:        290
cpu0_L2C LOAD      ACCESS:        270  HIT:          0  MISS:        270
cpu0_L2C RFO       ACCESS:         18  HIT:          0  MISS:         18
cpu0_L2C PREFETCH  ACCESS:          0  HIT:          0  MISS:          0
cpu0_L2C WRITEBACK ACCESS:          0  HIT:          0  MISS:          0
cpu0_L2C TRANSLATION ACCESS:          2  HIT:          0  MISS:          2
cpu0_L2C PREFETCH  REQUESTED:          0  ISSUED:          0  USEFUL:          0  USELESS:          0
cpu0_L2C AVERAGE MISS LATENCY: 311.959 cycles
LLC TOTAL     ACCESS:        290  HIT:          0  MISS:        290
LLC LOAD      ACCESS:        270  HIT:          0  MISS:        270
LLC RFO       ACCESS:         18  HIT:          0  MISS:         18
LLC PREFETCH  ACCESS:          0  HIT:          0  MISS:          0
LLC WRITEBACK ACCESS:          0  HIT:          0  MISS:          0
LLC TRANSLATION ACCESS:          2  HIT:          0  MISS:          2
LLC PREFETCH  REQUESTED:          0  ISSUED:          0  USEFUL:          0  USELESS:          0
LLC AVERAGE MISS LATENCY: 912.759 cycles

CPU 1 cumulative IPC: 1.3301 instructions: 266019 cycles: 200000
cpu1_DTLB TOTAL     ACCESS:      13506  HIT:      13451  MISS:         55
cpu1_DTLB LOAD      ACCESS:       7602  HIT:       7549  MISS:         53
cpu1_DTLB RFO       ACCESS:       5904  HIT:       5902  MISS:          2
cpu1_DTLB PREFETCH  ACCESS:          0  HIT:          0  MISS:          0
cpu1_DTLB WRITEBACK ACCESS:          0  HIT:          0  MISS:          0
cpu1_DTLB TRANSLATION ACCESS:          0  HIT:          0  MISS:          0
cpu1_DTLB PREFETCH  REQUESTED:          0  ISSUED:          0  USEFUL:          0  USELESS:          0
cpu1_DTLB AVERAGE MISS LATENCY: 189.873 cycles
cpu1_ITLB TOTAL     ACCESS:       7423  HIT:       7411  MISS:         12
cpu1_ITLB LOAD      ACCESS:       7423  HIT:       7411  MISS:         12
cpu1_ITLB RFO       ACCESS:          0  HIT:          0  MISS:          0
cpu1_ITLB PREFETCH  ACCESS:          0  HIT:          0  MISS:          0
cpu1_ITLB WRITEBACK ACCESS:          0  HIT:          0  MISS:          0
cpu1_ITLB TRANSLATION ACCESS:          0  HIT:          0  MISS:          0
cpu1_ITLB PREFETCH  REQUESTED:          0  ISSUED:          0  USEFUL:          0  USELESS:          0
cpu1_ITLB AVERAGE MISS LATENCY: 217.5 cycles
cpu1_L1I TOTAL     ACCESS:       1441  HIT:       1314  MISS:        127
cpu1_L1I LOAD      ACCESS:       1441  HIT:       1314  MISS:        127
cpu1_L1I RFO       ACCESS:          0  HIT:          0  MISS:          0
cpu1_L1I PREFETCH  ACCESS:          0  HIT:          0  MISS:          0
cpu1_L1I WRITEBACK ACCESS:          0  HIT:          0  MISS:          0
cpu1_L1I TRANSLATION ACCESS:          0  HIT:          0  MISS:          0
cpu1_L1I PREFETCH  REQUESTED:          0  ISSUED:          0  USEFUL:          0  USELESS:          0
cpu1_L1I AVERAGE MISS LATENCY: 250.268 cycles
cpu1_STLB TOTAL     ACCESS:         67  HIT:          8  MISS:         59
cpu1_STLB LOAD      ACCESS:         65  HIT:          8  MISS:         57
cpu1_STLB RFO       ACCESS:          2  HIT:          0  MISS:          2
cpu1_STLB PREFETCH  ACCESS:          0  HIT:          0  MISS:          0
cpu1_STLB WRITEBACK ACCESS:          0  HIT:          0  MISS:          0
cpu1_STLB TRANSLATION ACCESS:          0  HIT:          0  MISS:          0
cpu1_STLB PREFETCH  REQUESTED:          0  ISSUED:          0  USEFUL:          0  USELESS:          0
cpu1_STLB AVERAGE MISS LATENCY: 211.22 cycles
cpu1_L1D TOTAL     ACCESS:      24045  HIT:      23926  MISS:        119
cpu1_L1D LOAD      ACCESS:       8761  HIT:       8654  MISS:        107
cpu1_L1D RFO       ACCESS:      15227  HIT:      15216  MISS:         11
cpu1_L1D PREFETCH  ACCESS:          0  HIT:          0  MISS:          0
cpu1_L1D WRITEBACK ACCESS:          0  HIT:          0  MISS:          0
cpu1_L1D TRANSLATION ACCESS:         57  HIT:         56  MISS:          1
cpu1_L1D PREFETCH  REQUESTED:          0  ISSUED:          0  USEFUL:          0  USELESS:          0
cpu1_L1D AVERAGE MISS LATENCY: 280.151 cycles
cpu1_L2C TOTAL     ACCESS:        246  HIT:          0  MISS:        246
cpu1_L2C LOAD      ACCESS:        234  HIT:          0  MISS:        234
cpu1_L2C RFO       ACCESS:         11  HIT:          0  MISS:         11
cpu1_L2C PREFETCH  ACCESS:          0  HIT:          0  MISS:          0
cpu1_L2C WRITEBACK ACCESS:          0  HIT:          0  MISS:          0
cpu1_L2C TRANSLATION ACCESS:          1  HIT:          0  MISS:          1
cpu1_L2C PREFETCH  REQUESTED:          0  ISSUED:          0  USEFUL:          0  USELESS:          0
cpu1_L2C AVERAGE MISS LATENCY: 253.61 cycles
LLC TOTAL     ACCESS:        246  HIT:          0  MISS:        246
LLC LOAD      ACCESS:        234  HIT:          0  MISS:        234
LLC RFO       ACCESS:         11  HIT:          0  MISS:         11
LLC PREFETCH  ACCESS:          0  HIT:          0  MISS:          0
LLC WRITEBACK ACCESS:          0  HIT:          0  MISS:          0
LLC TRANSLATION ACCESS:          1  HIT:          0  MISS:          1
LLC PREFETCH  REQUESTED:          0  ISSUED:          0  USEFUL:          0  USELESS:          0
LLC AVERAGE MISS LATENCY: 1076.02 cycles

CPU 2 cumulative IPC: 1.33178 instructions: 266357 cycles: 200000
cpu2_DTLB TOTAL     ACCESS:      13252  HIT:      13185  MISS:         67
cpu2_DTLB LOAD      ACCESS:       7503  HIT:       7439  MISS:         64
cpu2_DTLB RFO       ACCESS:       5749  HIT:       5746  MISS:          3
cpu2_DTLB PREFETCH  ACCESS:          0  HIT:          0  MISS:          0
cpu2_DTLB WRITEBACK ACCESS:          0  HIT:          0  MISS:          0
cpu2_DTLB TRANSLATION ACCESS:          0  HIT:          0  MISS:          0
cpu2_DTLB PREFETCH  REQUESTED:          0  ISSUED:          0  USEFUL:          0  USELESS:          0
cpu2_DTLB AVERAGE MISS LATENCY: 195.463 cycles
cpu2_ITLB TOTAL     ACCESS:       7242  HIT:       7230  MISS:         12
cpu2_ITLB LOAD      ACCESS:       7242  HIT:       7230  MISS:         12
cpu2_ITLB RFO       ACCESS:          0  HIT:          0  MISS:          0
cpu2_ITLB PREFETCH  ACCESS:          0  HIT:          0  MISS:          0
cpu2_ITLB WRITEBACK ACCESS:          0  HIT:          0  MISS:          0
cpu2_ITLB TRANSLATION ACCESS:          0  HIT:          0  MISS:          0
cpu2_ITLB PREFETCH  REQUESTED:          0  ISSUED:          0  USEFUL:          0  USELESS:          0
cpu2_ITLB AVERAGE MISS LATENCY: 217.25 cycles
cpu2_L1I TOTAL     ACCESS:       1370  HIT:       1238  MISS:        132
cpu2_L1I LOAD      ACCESS:       1370  HIT:       1238  MISS:        132
cpu2_L1I RFO       ACCESS:          0  HIT:          0  MISS:          0
cpu2_L1I PREFETCH  ACCESS:          0  HIT:          0  MISS:          0
cpu2_L1I WRITEBACK ACCESS:          0  HIT:          0  MISS:          0
cpu2_L1I TRANSLATION ACCESS:          0  HIT:          0  MISS:          0
cpu2_L1I PREFETCH  REQUESTED:          0  ISSUED:          0  USEFUL:          0  USELESS:          0
cpu2_L1I AVERAGE MISS LATENCY: 254.015 cycles
cpu2_STLB TOTAL     ACCESS:         79  HIT:         10  MISS:         69
cpu2_STLB LOAD      ACCESS:         76  HIT:         10  MISS:         66
cpu2_STLB RFO       ACCESS:          3  HIT:          0  MISS:          3
cpu2_STLB PREFETCH  ACCESS:          0  HIT:          0  MISS:          0
cpu2_STLB WRITEBACK ACCESS:          0  HIT:          0  MISS:          0
cpu2_STLB TRANSLATION ACCESS:          0  HIT:          0  MISS:          0
cpu2_STLB PREFETCH  REQUESTED:          0  ISSUED:          0  USEFUL:          0  USELESS:          0
cpu2_STLB AVERAGE MISS LATENCY: 217.348 cycles
cpu2_L1D TOTAL     ACCESS:      23078  HIT:      22953  MISS:        125
cpu2_L1D LOAD      ACCESS:       8462  HIT:       8356  MISS:        106
cpu2_L1D RFO       ACCESS:      14547  HIT:      14529  MISS:         18
cpu2_L1D PREFETCH  ACCESS:          0  HIT:          0  MISS:          0
cpu2_L1D WRITEBACK ACCESS:          0  HIT:          0  MISS:          0
cpu2_L1D TRANSLATION ACCESS:         69  HIT:         68  MISS:          1
cpu2_L1D PREFETCH  REQUESTED:          0  ISSUED:          0  USEFUL:          0  USELESS:          0
cpu2_L1D AVERAGE MISS LATENCY: 301.776 cycles
cpu2_L2C TOTAL     ACCESS:        257  HIT:          0  MISS:        257
cpu2_L2C LOAD      ACCESS:        238  HIT:          0  MISS:        238
cpu2_L2C RFO       ACCESS:         18  HIT:          0  MISS:         18
cpu2_L2C PREFETCH  ACCESS:          0  HIT:          0  MISS:          0
cpu2_L2C WRITEBACK ACCESS:          0  HIT:          0  MISS:          0
cpu2_L2C TRANSLATION ACCESS:          1  HIT:          0  MISS:          1
cpu2_L2C PREFETCH  REQUESTED:          0  ISSUED:          0  USEFUL:          0  USELESS:          0
cpu2_L2C AVERAGE MISS LATENCY: 266.21 cycles
LLC TOTAL     ACCESS:        257  HIT:          0  MISS:        257
LLC LOAD      ACCESS:        238  HIT:          0  MISS:        238
LLC RFO       ACCESS:         18  HIT:          0  MISS:         18
LLC PREFETCH  ACCESS:          0  HIT:          0  MISS:          0
LLC WRITEBACK ACCESS:          0  HIT:          0  MISS:          0
LLC TRANSLATION ACCESS:          1  HIT:          0  MISS:          1
LLC PREFETCH  REQUESTED:          0  ISSUED:          0  USEFUL:          0  USELESS:          0
LLC AVERAGE MISS LATENCY: 1029.96 cycles

CPU 3 cumulative IPC: 1.33134 instructions: 266268 cycles: 200000
cpu3_DTLB TOTAL     ACCESS:      14118  HIT:      14063  MISS:         55
cpu3_DTLB LOAD      ACCESS:       8040  HIT:       7987  MISS:         53
cpu3_DTLB RFO       ACCESS:       6078  HIT:       6076  MISS:          2
cpu3_DTLB PREFETCH  ACCESS:          0  HIT:          0  MISS:          0
cpu3_DTLB WRITEBACK ACCESS:          0  HIT:          0  MISS:          0
cpu3_DTLB TRANSLATION ACCESS:          0  HIT:          0  MISS:          0
cpu3_DTLB PREFETCH  REQUESTED:          0  ISSUED:          0  USEFUL:          0  USELESS:          0
cpu3_DTLB AVERAGE MISS LATENCY: 190.309 cycles
cpu3_ITLB TOTAL     ACCESS:       7525  HIT:       7513  MISS:         12
cpu3_ITLB LOAD      ACCESS:       7525  HIT:       7513  MISS:         12
cpu3_ITLB RFO       ACCESS:          0  HIT:          0  MISS:          0
cpu3_ITLB PREFETCH  ACCESS:          0  HIT:          0  MISS:          0
cpu3_ITLB WRITEBACK ACCESS:          0  HIT:          0  MISS:          0
cpu3_ITLB TRANSLATION ACCESS:          0  HIT:          0  MISS:          0
cpu3_ITLB PREFETCH  REQUESTED:          0  ISSUED:          0  USEFUL:          0  USELESS:          0
cpu3_ITLB AVERAGE MISS LATENCY: 216.833 cycles
cpu3_L1I TOTAL     ACCESS:       1438  HIT:       1313  MISS:        125
cpu3_L1I LOAD      ACCESS:       1438  HIT:       1313  MISS:        125
cpu3_L1I RFO       ACCESS:          0  HIT:          0  MISS:          0
cpu3_L1I PREFETCH  ACCESS:          0  HIT:          0  MISS:          0
cpu3_L1I WRITEBACK ACCESS:          0  HIT:          0  MISS:          0
cpu3_L1I TRANSLATION ACCESS:          0  HIT:          0  MISS:          0
cpu3_L1I PREFETCH  REQUESTED:          0  ISSUED:          0  USEFUL:          0  USELESS:          0
cpu3_L1I AVERAGE MISS LATENCY: 256.768 cycles
cpu3_STLB TOTAL     ACCESS:         67  HIT:          8  MISS:         59
cpu3_STLB LOAD      ACCESS:         65  HIT:          8  MISS:         57
cpu3_STLB RFO       ACCESS:          2  HIT:          0  MISS:          2
cpu3_STLB PREFETCH  ACCESS:          0  HIT:          0  MISS:          0
cpu3_STLB WRITEBACK ACCESS:          0  HIT:          0  MISS:          0
cpu3_STLB TRANSLATION ACCESS:          0  HIT:          0  MISS:          0
cpu3_STLB PREFETCH  REQUESTED:          0  ISSUED:          0  USEFUL:          0  USELESS:          0
cpu3_STLB AVERAGE MISS LATENCY: 211.288 cycles
cpu3_L1D TOTAL     ACCESS:      24131  HIT:      24012  MISS:        119
cpu3_L1D LOAD      ACCESS:       8826  HIT:       8719  MISS:        107
cpu3_L1D RFO       ACCESS:      15248  HIT:      15237  MISS:         11
cpu3_L1D PREFETCH  ACCESS:          0  HIT:          0  MISS:          0
cpu3_L1D WRITEBACK ACCESS:          0  HIT:          0  MISS:          0
cpu3_L1D TRANSLATION ACCESS:         57  HIT:         56  MISS:          1
cpu3_L1D PREFETCH  REQUESTED:          0  ISSUED:          0  USEFUL:          0  USELESS:          0
cpu3_L1D AVERAGE MISS LATENCY: 301 cycles
cpu3_L2C TOTAL     ACCESS:        244  HIT:          0  MISS:        244
cpu3_L2C LOAD      ACCESS:        232  HIT:          0  MISS:        232
cpu3_L2C RFO       ACCESS:         11  HIT:          0  MISS:         11
cpu3_L2C PREFETCH  ACCESS:          0  HIT:          0  MISS:          0
cpu3_L2C WRITEBACK ACCESS:          0  HIT:          0  MISS:          0
cpu3_L2C TRANSLATION ACCESS:          1  HIT:          0  MISS:          1
cpu3_L2C PREFETCH  REQUESTED:          0  ISSUED:          0  USEFUL:          0  USELESS:          0
cpu3_L2C AVERAGE MISS LATENCY: 267.307 cycles
LLC TOTAL     ACCESS:        244  HIT:          0  MISS:        244
LLC LOAD      ACCESS:        232  HIT:          0  MISS:        232
LLC RFO       ACCESS:         11  HIT:          0  MISS:         11
LLC PREFETCH  ACCESS:          0  HIT:          0  MISS:          0
LLC WRITEBACK ACCESS:          0  HIT:          0  MISS:          0
LLC TRANSLATION ACCESS:          1  HIT:          0  MISS:          1
LLC PREFETCH  REQUESTED:          0  ISSUED:          0  USEFUL:          0  USELESS:          0
LLC AVERAGE MISS LATENCY: 1084.84 cycles

DRAM Statistics
 CHANNEL 0
 RQ ROW_BUFFER_HIT:          1  ROW_BUFFER_MISS:       1036
 DBUS AVG_CONGESTED_CYCLE:    3.88781
 WQ ROW_BUFFER_HIT:          0  ROW_BUFFER_MISS:          0  FULL:          0


CPU 0 Branch Prediction Accuracy: 95.8252% MPKI: 1.67898 Average ROB Occupancy at Mispredict: 113.078
Branch type MPKI
BRANCH_DIRECT_JUMP: 0.101273
BRANCH_INDIRECT: 0.0412595
BRANCH_CONDITIONAL: 1.38782
BRANCH_DIRECT_CALL: 0.0487613
BRANCH_INDIRECT_CALL: 0.0525121
BRANCH_RETURN: 0.0487613


CPU 1 Branch Prediction Accuracy: 95.9903% MPKI: 1.67494 Average ROB Occupancy at Mispredict: 117.206
Branch type MPKI
BRANCH_DIRECT_JUMP: 0.101497
BRANCH_INDIRECT: 0.0413504
BRANCH_CONDITIONAL: 1.38712
BRANCH_DIRECT_CALL: 0.0488687
BRANCH_INDIRECT_CALL: 0.0526278
BRANCH_RETURN: 0.0451096


CPU 2 Branch Prediction Accuracy: 95.8653% MPKI: 1.67742 Average ROB Occupancy at Mispredict: 113.266
Branch type MPKI
BRANCH_DIRECT_JUMP: 0.101368
BRANCH_INDIRECT: 0.041298
BRANCH_CONDITIONAL: 1.38536
BRANCH_DIRECT_CALL: 0.0488067
BRANCH_INDIRECT_CALL: 0.052561
BRANCH_RETURN: 0.0488067


CPU 3 Branch Prediction Accuracy: 96.0154% MPKI: 1.67123 Average ROB Occupancy at Mispredict: 116.229
Branch type MPKI
BRANCH_DIRECT_JUMP: 0.101402
BRANCH_INDIRECT: 0.0413118
BRANCH_CONDITIONAL: 1.38207
BRANCH_DIRECT_CALL: 0.048823
BRANCH_INDIRECT_CALL: 0.0525786
BRANCH_RETURN: 0.0450674

(Simulation time: 0 hr 0 min 7 sec) 


ChampSim completed all CPUs

Total Simulation Statistics (not including warmup)

CPU 0 cumulative IPC: 1.02792 instructions: 308376 cycles: 300000
cpu0_DTLB TOTAL     ACCESS:      10188  HIT:      10003  MISS:        185
cpu0_DTLB LOAD      ACCESS:       7093  HIT:       6919  MISS:        174
cpu0_DTLB RFO       ACCESS:       3095  HIT:       3084  MISS:         11
cpu0_DTLB PREFETCH  ACCESS:          0  HIT:          0  MISS:          0
cpu0_DTLB WRITEBACK ACCESS:          0  HIT:          0  MISS:          0
cpu0_ITLB TOTAL     ACCESS:       3035  HIT:       3024  MISS:         11
cpu0_ITLB LOAD      ACCESS:       3035  HIT:       3024  MISS:         11
cpu0_ITLB RFO       ACCESS:          0  HIT:          0  MISS:          0
cpu0_ITLB PREFETCH  ACCESS:          0  HIT:          0  MISS:          0
cpu0_ITLB WRITEBACK ACCESS:          0  HIT:          0  MISS:          0
cpu0_L1I TOTAL     ACCESS:       4799  HIT:       4676  MISS:        123
cpu0_L1I LOAD      ACCESS:       4799  HIT:       4676  MISS:        123
cpu0_L1I RFO       ACCESS:          0  HIT:          0  MISS:          0
cpu0_L1I PREFETCH  ACCESS:          0  HIT:          0  MISS:          0
cpu0_L1I WRITEBACK ACCESS:          0  HIT:          0  MISS:          0
cpu0_STLB TOTAL     ACCESS:        196  HIT:        154  MISS:         42
cpu0_STLB LOAD      ACCESS:        185  HIT:        144  MISS:         41
cpu0_STLB RFO       ACCESS:         11  HIT:         10  MISS:          1
cpu0_STLB PREFETCH  ACCESS:          0  HIT:          0  MISS:          0
cpu0_STLB WRITEBACK ACCESS:          0  HIT:          0  MISS:          0
cpu0_L1D TOTAL     ACCESS:      12757  HIT:      12480  MISS:        277
cpu0_L1D LOAD      ACCESS:       6820  HIT:       6551  MISS:        269
cpu0_L1D RFO       ACCESS:       5896  HIT:       5888  MISS:          8
cpu0_L1D PREFETCH  ACCESS:          0  HIT:          0  MISS:          0
cpu0_L1D WRITEBACK ACCESS:          0  HIT:          0  MISS:          0
cpu0_L2C TOTAL     ACCESS:        405  HIT:         34  MISS:        371
cpu0_L2C LOAD      ACCESS:        392  HIT:         29  MISS:        363
cpu0_L2C RFO       ACCESS:          8  HIT:          0  MISS:          8
cpu0_L2C PREFETCH  ACCESS:          0  HIT:          0  MISS:          0
cpu0_L2C WRITEBACK ACCESS:          5  HIT:          5  MISS:          0
LLC TOTAL     ACCESS:        371  HIT:          0  MISS:        371
LLC LOAD      ACCESS:        363  HIT:          0  MISS:        363
LLC RFO       ACCESS:          8  HIT:          0  MISS:          8
LLC PREFETCH  ACCESS:          0  HIT:          0  MISS:          0
LLC WRITEBACK ACCESS:          0  HIT:          0  MISS:          0

CPU 1 cumulative IPC: 1.02276 instructions: 306829 cycles: 300000
cpu1_DTLB TOTAL     ACCESS:       9534  HIT:       9361  MISS:        173
cpu1_DTLB LOAD      ACCESS:       6725  HIT:       6563  MISS:        162
cpu1_DTLB RFO       ACCESS:       2809  HIT:       2798  MISS:         11
cpu1_DTLB PREFETCH  ACCESS:          0  HIT:          0  MISS:          0
cpu1_DTLB WRITEBACK ACCESS:          0  HIT:          0  MISS:          0
cpu1_ITLB TOTAL     ACCESS:       2958  HIT:       2947  MISS:         11
cpu1_ITLB LOAD      ACCESS:       2958  HIT:       2947  MISS:         11
cpu1_ITLB RFO       ACCESS:          0  HIT:          0  MISS:          0
cpu1_ITLB PREFETCH  ACCESS:          0  HIT:          0  MISS:          0
cpu1_ITLB WRITEBACK ACCESS:          0  HIT:          0  MISS:          0
cpu1_L1I TOTAL     ACCESS:       4671  HIT:       4549  MISS:        122
cpu1_L1I LOAD      ACCESS:       4671  HIT:       4549  MISS:        122
cpu1_L1I RFO       ACCESS:          0  HIT:          0  MISS:          0
cpu1_L1I PREFETCH  ACCESS:          0  HIT:          0  MISS:          0
cpu1_L1I WRITEBACK ACCESS:          0  HIT:          0  MISS:          0
cpu1_STLB TOTAL     ACCESS:        184  HIT:        125  MISS:         59
cpu1_STLB LOAD      ACCESS:        173  HIT:        115  MISS:         58
cpu1_STLB RFO       ACCESS:         11  HIT:         10  MISS:          1
cpu1_STLB PREFETCH  ACCESS:          0  HIT:          0  MISS:          0
cpu1_STLB WRITEBACK ACCESS:          0  HIT:          0  MISS:          0
cpu1_L1D TOTAL     ACCESS:      12461  HIT:      12172  MISS:        289
cpu1_L1D LOAD      ACCESS:       6671  HIT:       6390  MISS:        281
cpu1_L1D RFO       ACCESS:       5733  HIT:       5726  MISS:          7
cpu1_L1D PREFETCH  ACCESS:          0  HIT:          0  MISS:          0
cpu1_L1D WRITEBACK ACCESS:          0  HIT:          0  MISS:          0
cpu1_L2C TOTAL     ACCESS:        414  HIT:         26  MISS:        388
cpu1_L2C LOAD      ACCESS:        403  HIT:         23  MISS:        380
cpu1_L2C RFO       ACCESS:          7  HIT:          0  MISS:          7
cpu1_L2C PREFETCH  ACCESS:          0  HIT:          0  MISS:          0
cpu1_L2C WRITEBACK ACCESS:          3  HIT:          3  MISS:          0
LLC TOTAL     ACCESS:        388  HIT:          0  MISS:        388
LLC LOAD      ACCESS:        380  HIT:          0  MISS:        380
LLC RFO       ACCESS:          7  HIT:          0  MISS:          7
LLC PREFETCH  ACCESS:          0  HIT:          0  MISS:          0
LLC WRITEBACK ACCESS:          0  HIT:          0  MISS:          0

CPU 2 cumulative IPC: 1.02339 instructions: 307016 cycles: 300000
cpu2_DTLB TOTAL     ACCESS:       9721  HIT:       9559  MISS:        162
cpu2_DTLB LOAD      ACCESS:       6813  HIT:       6660  MISS:        153
cpu2_DTLB RFO       ACCESS:       2908  HIT:       2899  MISS:          9
cpu2_DTLB PREFETCH  ACCESS:          0  HIT:          0  MISS:          0
cpu2_DTLB WRITEBACK ACCESS:          0  HIT:          0  MISS:          0
cpu2_ITLB TOTAL     ACCESS:       2873  HIT:       2862  MISS:         11
cpu2_ITLB LOAD      ACCESS:       2873  HIT:       2862  MISS:         11
cpu2_ITLB RFO       ACCESS:          0  HIT:          0  MISS:          0
cpu2_ITLB PREFETCH  ACCESS:          0  HIT:          0  MISS:          0
cpu2_ITLB WRITEBACK ACCESS:          0  HIT:          0  MISS:          0
cpu2_L1I TOTAL     ACCESS:       4648  HIT:       4530  MISS:        118
cpu2_L1I LOAD      ACCESS:       4648  HIT:       4530  MISS:        118
cpu2_L1I RFO       ACCESS:          0  HIT:          0  MISS:          0
cpu2_L1I PREFETCH  ACCESS:          0  HIT:          0  MISS:          0
cpu2_L1I WRITEBACK ACCESS:          0  HIT:          0  MISS:          0
cpu2_STLB TOTAL     ACCESS:        173  HIT:        122  MISS:         51
cpu2_STLB LOAD      ACCESS:        164  HIT:        113  MISS:         51
cpu2_STLB RFO       ACCESS:          9  HIT:          9  MISS:          0
cpu2_STLB PREFETCH  ACCESS:          0  HIT:          0  MISS:          0
cpu2_STLB WRITEBACK ACCESS:          0  HIT:          0  MISS:          0
cpu2_L1D TOTAL     ACCESS:      12458  HIT:      12171  MISS:        287
cpu2_L1D LOAD      ACCESS:       6675  HIT:       6389  MISS:        286
cpu2_L1D RFO       ACCESS:       5735  HIT:       5735  MISS:          0
cpu2_L1D PREFETCH  ACCESS:          0  HIT:          0  MISS:          0
cpu2_L1D WRITEBACK ACCESS:          0  HIT:          0  MISS:          0
cpu2_L2C TOTAL     ACCESS:        408  HIT:         27  MISS:        381
cpu2_L2C LOAD      ACCESS:        404  HIT:         24  MISS:        380
cpu2_L2C RFO       ACCESS:          0  HIT:          0  MISS:          0
cpu2_L2C PREFETCH  ACCESS:          0  HIT:          0  MISS:          0
cpu2_L2C WRITEBACK ACCESS:          3  HIT:          3  MISS:          0
LLC TOTAL     ACCESS:        381  HIT:          0  MISS:        381
LLC LOAD      ACCESS:        380  HIT:          0  MISS:        380
LLC RFO       ACCESS:          0  HIT:          0  MISS:          0
LLC PREFETCH  ACCESS:          0  HIT:          0  MISS:          0
LLC WRITEBACK ACCESS:          0  HIT:          0  MISS:          0

CPU 3 cumulative IPC: 1.02364 instructions: 307091 cycles: 300000
cpu3_DTLB TOTAL     ACCESS:       9955  HIT:       9782  MISS:        173
cpu3_DTLB LOAD      ACCESS:       6971  HIT:       6808  MISS:        163
cpu3_DTLB RFO       ACCESS:       2984  HIT:       2974  MISS:         10
cpu3_DTLB PREFETCH  ACCESS:          0  HIT:          0  MISS:          0
cpu3_DTLB WRITEBACK ACCESS:          0  HIT:          0  MISS:          0
cpu3_ITLB TOTAL     ACCESS:       2964  HIT:       2953  MISS:         11
cpu3_ITLB LOAD      ACCESS:       2964  HIT:       2953  MISS:         11
cpu3_ITLB RFO       ACCESS:          0  HIT:          0  MISS:          0
cpu3_ITLB PREFETCH  ACCESS:          0  HIT:          0  MISS:          0
cpu3_ITLB WRITEBACK ACCESS:          0  HIT:          0  MISS:          0
cpu3_L1I TOTAL     ACCESS:       4636  HIT:       4512  MISS:        124
cpu3_L1I LOAD      ACCESS:       4636  HIT:       4512  MISS:        124
cpu3_L1I RFO       ACCESS:          0  HIT:          0  MISS:          0
cpu3_L1I PREFETCH  ACCESS:          0  HIT:          0  MISS:          0
cpu3_L1I WRITEBACK ACCESS:          0  HIT:          0  MISS:          0
cpu3_STLB TOTAL     ACCESS:        184  HIT:        124  MISS:         60
cpu3_STLB LOAD      ACCESS:        174  HIT:        115  MISS:         59
cpu3_STLB RFO       ACCESS:         10  HIT:          9  MISS:          1
cpu3_STLB PREFETCH  ACCESS:          0  HIT:          0  MISS:          0
cpu3_STLB WRITEBACK ACCESS:          0  HIT:          0  MISS:          0
cpu3_L1D TOTAL     ACCESS:      12497  HIT:      12206  MISS:        291
cpu3_L1D LOAD      ACCESS:       6705  HIT:       6422  MISS:        283
cpu3_L1D RFO       ACCESS:       5733  HIT:       5726  MISS:          7
cpu3_L1D PREFETCH  ACCESS:          0  HIT:          0  MISS:          0
cpu3_L1D WRITEBACK ACCESS:          0  HIT:          0  MISS:          0
cpu3_L2C TOTAL     ACCESS:        418  HIT:         26  MISS:        392
cpu3_L2C LOAD      ACCESS:        407  HIT:         23  MISS:        384
cpu3_L2C RFO       ACCESS:          7  HIT:          0  MISS:          7
cpu3_L2C PREFETCH  ACCESS:          0  HIT:          0  MISS:          0
cpu3_L2C WRITEBACK ACCESS:          3  HIT:          3  MISS:          0
LLC TOTAL     ACCESS:        392  HIT:          0  MISS:        392
LLC LOAD      ACCESS:        384  HIT:          0  MISS:        384
LLC RFO       ACCESS:          7  HIT:          0  MISS:          7
LLC PREFETCH  ACCESS:          0  HIT:          0  MISS:          0
LLC WRITEBACK ACCESS:          0  HIT:          0  MISS:          0

Region of Interest Statistics

CPU 0 cumulative IPC: 1.02792 instructions: 308376 cycles: 300000
cpu0_DTLB TOTAL     ACCESS:      10188  HIT:      10003  MISS:        185
cpu0_DTLB LOAD      ACCESS:       7093  HIT:       6919  MISS:        174
cpu0_DTLB RFO       ACCESS:       3095  HIT:       3084  MISS:         11
cpu0_DTLB PREFETCH  ACCESS:          0  HIT:          0  MISS:          0
cpu0_DTLB WRITEBACK ACCESS:          0  HIT:          0  MISS:          0
cpu0_DTLB TRANSLATION ACCESS:          0  HIT:          0  MISS:          0
cpu0_DTLB PREFETCH  REQUESTED:          0  ISSUED:          0  USEFUL:          0  USELESS:          0
cpu0_DTLB AVERAGE MISS LATENCY: 44.627 cycles
cpu0_ITLB TOTAL     ACCESS:       3035  HIT:       3024  MISS:         11
cpu0_ITLB LOAD      ACCESS:       3035  HIT:       3024  MISS:         11
cpu0_ITLB RFO       ACCESS:          0  HIT:          0  MISS:          0
cpu0_ITLB PREFETCH  ACCESS:          0  HIT:          0  MISS:          0
cpu0_ITLB WRITEBACK ACCESS:          0  HIT:          0  MISS:          0
cpu0_ITLB TRANSLATION ACCESS:          0  HIT:          0  MISS:          0
cpu0_ITLB PREFETCH  REQUESTED:          0  ISSUED:          0  USEFUL:          0  USELESS:          0
cpu0_ITLB AVERAGE MISS LATENCY: 198.273 cycles
cpu0_L1I TOTAL     ACCESS:       4799  HIT:       4676  MISS:        123
cpu0_L1I LOAD      ACCESS:       4799  HIT:       4676  MISS:        123
cpu0_L1I RFO       ACCESS:          0  HIT:          0  MISS:          0
cpu0_L1I PREFETCH  ACCESS:          0  HIT:          0  MISS:          0
cpu0_L1I WRITEBACK ACCESS:          0  HIT:          0  MISS:          0
cpu0_L1I TRANSLATION ACCESS:          0  HIT:          0  MISS:          0
cpu0_L1I PREFETCH  REQUESTED:          0  ISSUED:          0  USEFUL:          0  USELESS:          0
cpu0_L1I AVERAGE MISS LATENCY: 233.659 cycles
cpu0_STLB TOTAL     ACCESS:        196  HIT:        154  MISS:         42
cpu0_STLB LOAD      ACCESS:        185  HIT:        144  MISS:         41
cpu0_STLB RFO       ACCESS:         11  HIT:         10  MISS:          1
cpu0_STLB PREFETCH  ACCESS:          0  HIT:          0  MISS:          0
cpu0_STLB WRITEBACK ACCESS:          0  HIT:          0  MISS:          0
cpu0_STLB TRANSLATION ACCESS:          0  HIT:          0  MISS:          0
cpu0_STLB PREFETCH  REQUESTED:          0  ISSUED:          0  USEFUL:          0  USELESS:          0
cpu0_STLB AVERAGE MISS LATENCY: 208.048 cycles
cpu0_L1D TOTAL     ACCESS:      12757  HIT:      12480  MISS:        277
cpu0_L1D LOAD      ACCESS:       6820  HIT:       6551  MISS:        269
cpu0_L1D RFO       ACCESS:       5896  HIT:       5888  MISS:          8
cpu0_L1D PREFETCH  ACCESS:          0  HIT:          0  MISS:          0
cpu0_L1D WRITEBACK ACCESS:          0  HIT:          0  MISS:          0
cpu0_L1D TRANSLATION ACCESS:         41  HIT:         41  MISS:          0
cpu0_L1D PREFETCH  REQUESTED:          0  ISSUED:          0  USEFUL:          0  USELESS:          0
cpu0_L1D AVERAGE MISS LATENCY: 250.087 cycles
cpu0_L2C TOTAL     ACCESS:        405  HIT:         34  MISS:        371
cpu0_L2C LOAD      ACCESS:        392  HIT:         29  MISS:        363
cpu0_L2C RFO       ACCESS:          8  HIT:          0  MISS:          8
cpu0_L2C PREFETCH  ACCESS:          0  HIT:          0  MISS:          0
cpu0_L2C WRITEBACK ACCESS:          5  HIT:          5  MISS:          0
cpu0_L2C TRANSLATION ACCESS:          0  HIT:          0  MISS:          0
cpu0_L2C PREFETCH  REQUESTED:          0  ISSUED:          0  USEFUL:          0  USELESS:          0
cpu0_L2C AVERAGE MISS LATENCY: 252.059 cycles
LLC TOTAL     ACCESS:        371  HIT:          0  MISS:        371
LLC LOAD      ACCESS:        363  HIT:          0  MISS:        363
LLC RFO       ACCESS:          8  HIT:          0  MISS:          8
LLC PREFETCH  ACCESS:          0  HIT:          0  MISS:          0
LLC WRITEBACK ACCESS:          0  HIT:          0  MISS:          0
LLC TRANSLATION ACCESS:          0  HIT:          0  MISS:          0
LLC PREFETCH  REQUESTED:          0  ISSUED:          0  USEFUL:          0  USELESS:          0
LLC AVERAGE MISS LATENCY: 1171.87 cycles

CPU 1 cumulative IPC: 1.02276 instructions: 306829 cycles: 300000
cpu1_DTLB TOTAL     ACCESS:       9534  HIT:       9361  MISS:        173
cpu1_DTLB LOAD      ACCESS:       6725  HIT:       6563  MISS:        162
cpu1_DTLB RFO       ACCESS:       2809  HIT:       2798  MISS:         11
cpu1_DTLB PREFETCH  ACCESS:          0  HIT:          0  MISS:          0
cpu1_DTLB WRITEBACK ACCESS:          0  HIT:          0  MISS:          0
cpu1_DTLB TRANSLATION ACCESS:          0  HIT:          0  MISS:          0
cpu1_DTLB PREFETCH  REQUESTED:          0  ISSUED:          0  USEFUL:          0  USELESS:          0
cpu1_DTLB AVERAGE MISS LATENCY: 75.6647 cycles
cpu1_ITLB TOTAL     ACCESS:       2958  HIT:       2947  MISS:         11
cpu1_ITLB LOAD      ACCESS:       2958  HIT:       2947  MISS:         11
cpu1_ITLB RFO       ACCESS:          0  HIT:          0  MISS:          0
cpu1_ITLB PREFETCH  ACCESS:          0  HIT:          0  MISS:          0
cpu1_ITLB WRITEBACK ACCESS:          0  HIT:          0  MISS:          0
cpu1_ITLB TRANSLATION ACCESS:          0  HIT:          0  MISS:          0
cpu1_ITLB PREFETCH  REQUESTED:          0  ISSUED:          0  USEFUL:          0  USELESS:          0
cpu1_ITLB AVERAGE MISS LATENCY: 198.364 cycles
cpu1_L1I TOTAL     ACCESS:       4671  HIT:       4549  MISS:        122
cpu1_L1I LOAD      ACCESS:       4671  HIT:       4549  MISS:        122
cpu1_L1I RFO       ACCESS:          0  HIT:          0  MISS:          0
cpu1_L1I PREFETCH  ACCESS:          0  HIT:          0  MISS:          0
cpu1_L1I WRITEBACK ACCESS:          0  HIT:          0  MISS:          0
cpu1_L1I TRANSLATION ACCESS:          0  HIT:          0  MISS:          0
cpu1_L1I PREFETCH  REQUESTED:          0  ISSUED:          0  USEFUL:          0  USELESS:          0
cpu1_L1I AVERAGE MISS LATENCY: 258.369 cycles
cpu1_STLB TOTAL     ACCESS:        184  HIT:        125  MISS:         59
cpu1_STLB LOAD      ACCESS:        173  HIT:        115  MISS:         58
cpu1_STLB RFO       ACCESS:         11  HIT:         10  MISS:          1
cpu1_STLB PREFETCH  ACCESS:          0  HIT:          0  MISS:          0
cpu1_STLB WRITEBACK ACCESS:          0  HIT:          0  MISS:          0
cpu1_STLB TRANSLATION ACCESS:          0  HIT:          0  MISS:          0
cpu1_STLB PREFETCH  REQUESTED:          0  ISSUED:          0  USEFUL:          0  USELESS:          0
cpu1_STLB AVERAGE MISS LATENCY: 231.407 cycles
cpu1_L1D TOTAL     ACCESS:      12461  HIT:      12172  MISS:        289
cpu1_L1D LOAD      ACCESS:       6671  HIT:       6390  MISS:        281
cpu1_L1D RFO       ACCESS:       5733  HIT:       5726  MISS:          7
cpu1_L1D PREFETCH  ACCESS:          0  HIT:          0  MISS:          0
cpu1_L1D WRITEBACK ACCESS:          0  HIT:          0  MISS:          0
cpu1_L1D TRANSLATION ACCESS:         57  HIT:         56  MISS:          1
cpu1_L1D PREFETCH  REQUESTED:          0  ISSUED:          0  USEFUL:          0  USELESS:          0
cpu1_L1D AVERAGE MISS LATENCY: 332.09 cycles
cpu1_L2C TOTAL     ACCESS:        414  HIT:         26  MISS:        388
cpu1_L2C LOAD      ACCESS:        403  HIT:         23  MISS:        380
cpu1_L2C RFO       ACCESS:          7  HIT:          0  MISS:          7
cpu1_L2C PREFETCH  ACCESS:          0  HIT:          0  MISS:          0
cpu1_L2C WRITEBACK ACCESS:          3  HIT:          3  MISS:          0
cpu1_L2C TRANSLATION ACCESS:          1  HIT:          0  MISS:          1
cpu1_L2C PREFETCH  REQUESTED:          0  ISSUED:          0  USEFUL:          0  USELESS:          0
cpu1_L2C AVERAGE MISS LATENCY: 316.755 cycles
LLC TOTAL     ACCESS:        388  HIT:          0  MISS:        388
LLC LOAD      ACCESS:        380  HIT:          0  MISS:        380
LLC RFO       ACCESS:          7  HIT:          0  MISS:          7
LLC PREFETCH  ACCESS:          0  HIT:          0  MISS:          0
LLC WRITEBACK ACCESS:          0  HIT:          0  MISS:          0
LLC TRANSLATION ACCESS:          1  HIT:          0  MISS:          1
LLC PREFETCH  REQUESTED:          0  ISSUED:          0  USEFUL:          0  USELESS:          0
LLC AVERAGE MISS LATENCY: 1120.53 cycles

CPU 2 cumulative IPC: 1.02339 instructions: 307016 cycles: 300000
cpu2_DTLB TOTAL     ACCESS:       9721  HIT:       9559  MISS:        162
cpu2_DTLB LOAD      ACCESS:       6813  HIT:       6660  MISS:        153
cpu2_DTLB RFO       ACCESS:       2908  HIT:       2899  MISS:          9
cpu2_DTLB PREFETCH  ACCESS:          0  HIT:          0  MISS:          0
cpu2_DTLB WRITEBACK ACCESS:          0  HIT:          0  MISS:          0
cpu2_DTLB TRANSLATION ACCESS:          0  HIT:          0  MISS:          0
cpu2_DTLB PREFETCH  REQUESTED:          0  ISSUED:          0  USEFUL:          0  USELESS:          0
cpu2_DTLB AVERAGE MISS LATENCY: 67.4877 cycles
cpu2_ITLB TOTAL     ACCESS:       2873  HIT:       2862  MISS:         11
cpu2_ITLB LOAD      ACCESS:       2873  HIT:       2862  MISS:         11
cpu2_ITLB RFO       ACCESS:          0  HIT:          0  MISS:          0
cpu2_ITLB PREFETCH  ACCESS:          0  HIT:          0  MISS:          0
cpu2_ITLB WRITEBACK ACCESS:          0  HIT:          0  MISS:          0
cpu2_ITLB TRANSLATION ACCESS:          0  HIT:          0  MISS:          0
cpu2_ITLB PREFETCH  REQUESTED:          0  ISSUED:          0  USEFUL:          0  USELESS:          0
cpu2_ITLB AVERAGE MISS LATENCY: 198.273 cycles
cpu2_L1I TOTAL     ACCESS:       4648  HIT:       4530  MISS:        118
cpu2_L1I LOAD      ACCESS:       4648  HIT:       4530  MISS:        118
cpu2_L1I RFO       ACCESS:          0  HIT:          0  MISS:          0
cpu2_L1I PREFETCH  ACCESS:          0  HIT:          0  MISS:          0
cpu2_L1I WRITEBACK ACCESS:          0  HIT:          0  MISS:          0
cpu2_L1I TRANSLATION ACCESS:          0  HIT:          0  MISS:          0
cpu2_L1I PREFETCH  REQUESTED:          0  ISSUED:          0  USEFUL:          0  USELESS:          0
cpu2_L1I AVERAGE MISS LATENCY: 249.492 cycles
cpu2_STLB TOTAL     ACCESS:        173  HIT:        122  MISS:         51
cpu2_STLB LOAD      ACCESS:        164  HIT:        113  MISS:         51
cpu2_STLB RFO       ACCESS:          9  HIT:          9  MISS:          0
cpu2_STLB PREFETCH  ACCESS:          0  HIT:          0  MISS:          0
cpu2_STLB WRITEBACK ACCESS:          0  HIT:          0  MISS:          0
cpu2_STLB TRANSLATION ACCESS:          0  HIT:          0  MISS:          0
cpu2_STLB PREFETCH  REQUESTED:          0  ISSUED:          0  USEFUL:          0  USELESS:          0
cpu2_STLB AVERAGE MISS LATENCY: 227.176 cycles
[...]
cpu2_L1I RFO       ACCESS:          0  HIT:          0  MISS:          0
cpu2_L1I PREFETCH  ACCESS:          0  HIT:          0  MISS:          0
cpu2_L1I WRITEBACK ACCESS:          0  HIT:          0  MISS:          0
cpu2_STLB TOTAL     ACCESS:          5  HIT:          5  MISS:          0
cpu2_STLB LOAD      ACCESS:          4  HIT:          4  MISS:          0
cpu2_STLB RFO       ACCESS:          1  HIT:          1  MISS:          0
cpu2_STLB PREFETCH  ACCESS:          0  HIT:          0  MISS:          0
cpu2_STLB WRITEBACK ACCESS:          0  HIT:          0  MISS:          0
cpu2_L1D TOTAL     ACCESS:      65022  HIT:      65020  MISS:          2
cpu2_L1D LOAD      ACCESS:      22432  HIT:      22430  MISS:          2
cpu2_L1D RFO       ACCESS:      42590  HIT:      42590  MISS:          0
cpu2_L1D PREFETCH  ACCESS:          0  HIT:          0  MISS:          0
cpu2_L1D WRITEBACK ACCESS:          0  HIT:          0  MISS:          0
cpu2_L2C TOTAL     ACCESS:          2  HIT:          2  MISS:          0
cpu2_L2C LOAD      ACCESS:          2  HIT:          2  MISS:          0
cpu2_L2C RFO       ACCESS:          0  HIT:          0  MISS:          0
cpu2_L2C PREFETCH  ACCESS:          0  HIT:          0  MISS:          0
cpu2_L2C WRITEBACK ACCESS:          0  HIT:          0  MISS:          0

CPU 3 cumulative IPC: 1.73386 instructions: 10056406 cycles: 5800000
cpu3_DTLB TOTAL     ACCESS:      35367  HIT:      35362  MISS:          5
cpu3_DTLB LOAD      ACCESS:      18738  HIT:      18734  MISS:          4
cpu3_DTLB RFO       ACCESS:      16629  HIT:      16628  MISS:          1
cpu3_DTLB PREFETCH  ACCESS:          0  HIT:          0  MISS:          0
cpu3_DTLB WRITEBACK ACCESS:          0  HIT:          0  MISS:          0
cpu3_ITLB TOTAL     ACCESS:      16659  HIT:      16659  MISS:          0
cpu3_ITLB LOAD      ACCESS:      16659  HIT:      16659  MISS:          0
cpu3_ITLB RFO       ACCESS:          0  HIT:          0  MISS:          0
cpu3_ITLB PREFETCH  ACCESS:          0  HIT:          0  MISS:          0
cpu3_ITLB WRITEBACK ACCESS:          0  HIT:          0  MISS:          0
cpu3_L1I TOTAL     ACCESS:       6391  HIT:       6391  MISS:          0
cpu3_L1I LOAD      ACCESS:       6391  HIT:       6391  MISS:          0
cpu3_L1I RFO       ACCESS:          0  HIT:          0  MISS:          0
cpu3_L1I PREFETCH  ACCESS:          0  HIT:          0  MISS:          0
cpu3_L1I WRITEBACK ACCESS:          0  HIT:          0  MISS:          0
cpu3_STLB TOTAL     ACCESS:          5  HIT:          5  MISS:          0
cpu3_STLB LOAD      ACCESS:          4  HIT:          4  MISS:          0
cpu3_STLB RFO       ACCESS:          1  HIT:          1  MISS:          0
cpu3_STLB PREFETCH  ACCESS:          0  HIT:          0  MISS:          0
cpu3_STLB WRITEBACK ACCESS:          0  HIT:          0  MISS:          0
cpu3_L1D TOTAL     ACCESS:      64922  HIT:      64920  MISS:          2
cpu3_L1D LOAD      ACCESS:      22448  HIT:      22446  MISS:          2
cpu3_L1D RFO       ACCESS:      42474  HIT:      42474  MISS:          0
cpu3_L1D PREFETCH  ACCESS:          0  HIT:          0  MISS:          0
cpu3_L1D WRITEBACK ACCESS:          0  HIT:          0  MISS:          0
cpu3_L2C TOTAL     ACCESS:          2  HIT:          2  MISS:          0
cpu3_L2C LOAD      ACCESS:          2  HIT:          2  MISS:          0
cpu3_L2C RFO       ACCESS:          0  HIT:          0  MISS:          0
cpu3_L2C PREFETCH  ACCESS:          0  HIT:          0  MISS:          0
cpu3_L2C WRITEBACK ACCESS:          0  HIT:          0  MISS:          0

Region of Interest Statistics

CPU 0 cumulative IPC: 1.74173 instructions: 10102040 cycles: 5800000
cpu0_DTLB TOTAL     ACCESS:      35387  HIT:      35382  MISS:          5
cpu0_DTLB LOAD      ACCESS:      18698  HIT:      18694  MISS:          4
cpu0_DTLB RFO       ACCESS:      16689  HIT:      16688  MISS:          1
cpu0_DTLB PREFETCH  ACCESS:          0  HIT:          0  MISS:          0
cpu0_DTLB WRITEBACK ACCESS:          0  HIT:          0  MISS:          0
cpu0_DTLB TRANSLATION ACCESS:          0  HIT:          0  MISS:          0
cpu0_DTLB PREFETCH  REQUESTED:          0  ISSUED:          0  USEFUL:          0  USELESS:          0
cpu0_DTLB AVERAGE MISS LATENCY: 8.6 cycles
cpu0_ITLB TOTAL     ACCESS:      17058  HIT:      17058  MISS:          0
cpu0_ITLB LOAD      ACCESS:      17058  HIT:      17058  MISS:          0
cpu0_ITLB RFO       ACCESS:          0  HIT:          0  MISS:          0
cpu0_ITLB PREFETCH  ACCESS:          0  HIT:          0  MISS:          0
cpu0_ITLB WRITEBACK ACCESS:          0  HIT:          0  MISS:          0
cpu0_ITLB TRANSLATION ACCESS:          0  HIT:          0  MISS:          0
cpu0_ITLB PREFETCH  REQUESTED:          0  ISSUED:          0  USEFUL:          0  USELESS:          0
cpu0_ITLB AVERAGE MISS LATENCY: -nan cycles
cpu0_L1I TOTAL     ACCESS:       6871  HIT:       6871  MISS:          0
cpu0_L1I LOAD      ACCESS:       6871  HIT:       6871  MISS:          0
cpu0_L1I RFO       ACCESS:          0  HIT:          0  MISS:          0
cpu0_L1I PREFETCH  ACCESS:          0  HIT:          0  MISS:          0
cpu0_L1I WRITEBACK ACCESS:          0  HIT:          0  MISS:          0
cpu0_L1I TRANSLATION ACCESS:          0  HIT:          0  MISS:          0
cpu0_L1I PREFETCH  REQUESTED:          0  ISSUED:          0  USEFUL:          0  USELESS:          0
cpu0_L1I AVERAGE MISS LATENCY: -nan cycles
cpu0_STLB TOTAL     ACCESS:          5  HIT:          5  MISS:          0
cpu0_STLB LOAD      ACCESS:          4  HIT:          4  MISS:          0
cpu0_STLB RFO       ACCESS:          1  HIT:          1  MISS:          0
cpu0_STLB PREFETCH  ACCESS:          0  HIT:          0  MISS:          0
cpu0_STLB WRITEBACK ACCESS:          0  HIT:          0  MISS:          0
cpu0_STLB TRANSLATION ACCESS:          0  HIT:          0  MISS:          0
cpu0_STLB PREFETCH  REQUESTED:          0  ISSUED:          0  USEFUL:          0  USELESS:          0
cpu0_STLB AVERAGE MISS LATENCY: -nan cycles
cpu0_L1D TOTAL     ACCESS:      65082  HIT:      65079  MISS:          3
cpu0_L1D LOAD      ACCESS:      22447  HIT:      22444  MISS:          3
cpu0_L1D RFO       ACCESS:      42635  HIT:      42635  MISS:          0
cpu0_L1D PREFETCH  ACCESS:          0  HIT:          0  MISS:          0
cpu0_L1D WRITEBACK ACCESS:          0  HIT:          0  MISS:          0
cpu0_L1D TRANSLATION ACCESS:          0  HIT:          0  MISS:          0
cpu0_L1D PREFETCH  REQUESTED:          0  ISSUED:          0  USEFUL:          0  USELESS:          0
cpu0_L1D AVERAGE MISS LATENCY: 11 cycles
cpu0_L2C TOTAL     ACCESS:          3  HIT:          3  MISS:          0
cpu0_L2C LOAD      ACCESS:          3  HIT:          3  MISS:          0
cpu0_L2C RFO       ACCESS:          0  HIT:          0  MISS:          0
cpu0_L2C PREFETCH  ACCESS:          0  HIT:          0  MISS:          0
cpu0_L2C WRITEBACK ACCESS:          0  HIT:          0  MISS:          0
cpu0_L2C TRANSLATION ACCESS:          0  HIT:          0  MISS:          0
cpu0_L2C PREFETCH  REQUESTED:          0  ISSUED:          0  USEFUL:          0  USELESS:          0
cpu0_L2C AVERAGE MISS LATENCY: -nan cycles

CPU 1 cumulative IPC: 1.70247 instructions: 9874318 cycles: 5800000
cpu1_DTLB TOTAL     ACCESS:      23821  HIT:      23692  MISS:        129
cpu1_DTLB LOAD      ACCESS:      14935  HIT:      14814  MISS:        121
cpu1_DTLB RFO       ACCESS:       8886  HIT:       8878  MISS:          8
cpu1_DTLB PREFETCH  ACCESS:          0  HIT:          0  MISS:          0
cpu1_DTLB WRITEBACK ACCESS:          0  HIT:          0  MISS:          0
cpu1_DTLB TRANSLATION ACCESS:          0  HIT:          0  MISS:          0
cpu1_DTLB PREFETCH  REQUESTED:          0  ISSUED:          0  USEFUL:          0  USELESS:          0
cpu1_DTLB AVERAGE MISS LATENCY: 21.8682 cycles
cpu1_ITLB TOTAL     ACCESS:      13232  HIT:      13231  MISS:          1
cpu1_ITLB LOAD      ACCESS:      13232  HIT:      13231  MISS:          1
cpu1_ITLB RFO       ACCESS:          0  HIT:          0  MISS:          0
cpu1_ITLB PREFETCH  ACCESS:          0  HIT:          0  MISS:          0
cpu1_ITLB WRITEBACK ACCESS:          0  HIT:          0  MISS:          0
cpu1_ITLB TRANSLATION ACCESS:          0  HIT:          0  MISS:          0
cpu1_ITLB PREFETCH  REQUESTED:          0  ISSUED:          0  USEFUL:          0  USELESS:          0
cpu1_ITLB AVERAGE MISS LATENCY: 9 cycles
cpu1_L1I TOTAL     ACCESS:       5300  HIT:       5289  MISS:         11
cpu1_L1I LOAD      ACCESS:       5300  HIT:       5289  MISS:         11
cpu1_L1I RFO       ACCESS:          0  HIT:          0  MISS:          0
cpu1_L1I PREFETCH  ACCESS:          0  HIT:          0  MISS:          0
cpu1_L1I WRITEBACK ACCESS:          0  HIT:          0  MISS:          0
cpu1_L1I TRANSLATION ACCESS:          0  HIT:          0  MISS:          0
cpu1_L1I PREFETCH  REQUESTED:          0  ISSUED:          0  USEFUL:          0  USELESS:          0
cpu1_L1I AVERAGE MISS LATENCY: 10.2727 cycles
cpu1_STLB TOTAL     ACCESS:        130  HIT:        122  MISS:          8
cpu1_STLB LOAD      ACCESS:        122  HIT:        115  MISS:          7
cpu1_STLB RFO       ACCESS:          8  HIT:          7  MISS:          1
cpu1_STLB PREFETCH  ACCESS:          0  HIT:          0  MISS:          0
cpu1_STLB WRITEBACK ACCESS:          0  HIT:          0  MISS:          0
cpu1_STLB TRANSLATION ACCESS:          0  HIT:          0  MISS:          0
cpu1_STLB PREFETCH  REQUESTED:          0  ISSUED:          0  USEFUL:          0  USELESS:          0
cpu1_STLB AVERAGE MISS LATENCY: 209.5 cycles
cpu1_L1D TOTAL     ACCESS:      38547  HIT:      38466  MISS:         81
cpu1_L1D LOAD      ACCESS:      16149  HIT:      16077  MISS:         72
cpu1_L1D RFO       ACCESS:      22390  HIT:      22382  MISS:          8
cpu1_L1D PREFETCH  ACCESS:          0  HIT:          0  MISS:          0
cpu1_L1D WRITEBACK ACCESS:          0  HIT:          0  MISS:          0
cpu1_L1D TRANSLATION ACCESS:          8  HIT:          7  MISS:          1
cpu1_L1D PREFETCH  REQUESTED:          0  ISSUED:          0  USEFUL:          0  USELESS:          0
cpu1_L1D AVERAGE MISS LATENCY: 159.84 cycles
cpu1_L2C TOTAL     ACCESS:        103  HIT:         33  MISS:         70
cpu1_L2C LOAD      ACCESS:         83  HIT:         21  MISS:         62
cpu1_L2C RFO       ACCESS:          8  HIT:          0  MISS:          8
cpu1_L2C PREFETCH  ACCESS:          0  HIT:          0  MISS:          0
cpu1_L2C WRITEBACK ACCESS:         11  HIT:         11  MISS:          0
cpu1_L2C TRANSLATION ACCESS:          1  HIT:          1  MISS:          0
cpu1_L2C PREFETCH  REQUESTED:          0  ISSUED:          0  USEFUL:          0  USELESS:          0
cpu1_L2C AVERAGE MISS LATENCY: 172.086 cycles
LLC TOTAL     ACCESS:         70  HIT:          0  MISS:         70
LLC LOAD      ACCESS:         62  HIT:          0  MISS:         62
LLC RFO       ACCESS:          8  HIT:          0  MISS:          8
LLC PREFETCH  ACCESS:          0  HIT:          0  MISS:          0
LLC WRITEBACK ACCESS:          0  HIT:          0  MISS:          0
LLC TRANSLATION ACCESS:          0  HIT:          0  MISS:          0
LLC PREFETCH  REQUESTED:          0  ISSUED:          0  USEFUL:          0  USELESS:          0
LLC AVERAGE MISS LATENCY: 151.086 cycles

CPU 2 cumulative IPC: 1.73454 instructions: 10060356 cycles: 5800000
cpu2_DTLB TOTAL     ACCESS:      34634  HIT:      34629  MISS:          5
cpu2_DTLB LOAD      ACCESS:      18330  HIT:      18326  MISS:          4
cpu2_DTLB RFO       ACCESS:      16304  HIT:      16303  MISS:          1
cpu2_DTLB PREFETCH  ACCESS:          0  HIT:          0  MISS:          0
cpu2_DTLB WRITEBACK ACCESS:          0  HIT:          0  MISS:          0
cpu2_DTLB TRANSLATION ACCESS:          0  HIT:          0  MISS:          0
cpu2_DTLB PREFETCH  REQUESTED:          0  ISSUED:          0  USEFUL:          0  USELESS:          0
cpu2_DTLB AVERAGE MISS LATENCY: 9 cycles
cpu2_ITLB TOTAL     ACCESS:      16520  HIT:      16520  MISS:          0
cpu2_ITLB LOAD      ACCESS:      16520  HIT:      16520  MISS:          0
cpu2_ITLB RFO       ACCESS:          0  HIT:          0  MISS:          0
cpu2_ITLB PREFETCH  ACCESS:          0  HIT:          0  MISS:          0
cpu2_ITLB WRITEBACK ACCESS:          0  HIT:          0  MISS:          0
cpu2_ITLB TRANSLATION ACCESS:          0  HIT:          0  MISS:          0
cpu2_ITLB PREFETCH  REQUESTED:          0  ISSUED:          0  USEFUL:          0  USELESS:          0
cpu2_ITLB AVERAGE MISS LATENCY: -nan cycles
cpu2_L1I TOTAL     ACCESS:       6753  HIT:       6753  MISS:          0
cpu2_L1I LOAD      ACCESS:       6753  HIT:       6753  MISS:          0
cpu2_L1I RFO       ACCESS:          0  HIT:          0  MISS:          0
cpu2_L1I PREFETCH  ACCESS:          0  HIT:          0  MISS:          0
cpu2_L1I WRITEBACK ACCESS:          0  HIT:          0  MISS:          0
cpu2_L1I TRANSLATION ACCESS:          0  HIT:          0  MISS:          0
cpu2_L1I PREFETCH  REQUESTED:          0  ISSUED:          0  USEFUL:          0  USELESS:          0
cpu2_L1I AVERAGE MISS LATENCY: -nan cycles
cpu2_STLB TOTAL     ACCESS:          5  HIT:          5  MISS:          0
cpu2_STLB LOAD      ACCESS:          4  HIT:          4  MISS:          0
cpu2_STLB RFO       ACCESS:          1  HIT:          1  MISS:          0
cpu2_STLB PREFETCH  ACCESS:          0  HIT:          0  MISS:          0
cpu2_STLB WRITEBACK ACCESS:          0  HIT:          0  MISS:          0
cpu2_STLB TRANSLATION ACCESS:          0  HIT:          0  MISS:          0
cpu2_STLB PREFETCH  REQUESTED:          0  ISSUED:          0  USEFUL:          0  USELESS:          0
cpu2_STLB AVERAGE MISS LATENCY: -nan cycles
cpu2_L1D TOTAL     ACCESS:      65022  HIT:      65020  MISS:          2
cpu2_L1D LOAD      ACCESS:      22432  HIT:      22430  MISS:          2
cpu2_L1D RFO       ACCESS:      42590  HIT:      42590  MISS:          0
cpu2_L1D PREFETCH  ACCESS:          0  HIT:          0  MISS:          0
cpu2_L1D WRITEBACK ACCESS:          0  HIT:          0  MISS:          0
cpu2_L1D TRANSLATION ACCESS:          0  HIT:          0  MISS:          0
cpu2_L1D PREFETCH  REQUESTED:          0  ISSUED:          0  USEFUL:          0  USELESS:          0
cpu2_L1D AVERAGE MISS LATENCY: 11.5 cycles
cpu2_L2C TOTAL     ACCESS:          2  HIT:          2  MISS:          0
cpu2_L2C LOAD      ACCESS:          2  HIT:          2  MISS:          0
cpu2_L2C RFO       ACCESS:          0  HIT:          0  MISS:          0
cpu2_L2C PREFETCH  ACCESS:          0  HIT:          0  MISS:          0
cpu2_L2C WRITEBACK ACCESS:          0  HIT:          0  MISS:          0
cpu2_L2C TRANSLATION ACCESS:          0  HIT:          0  MISS:          0
cpu2_L2C PREFETCH  REQUESTED:          0  ISSUED:          0  USEFUL:          0  USELESS:          0
cpu2_L2C AVERAGE MISS LATENCY: -nan cycles

CPU 3 cumulative IPC: 1.73386 instructions: 10056406 cycles: 5800000
cpu3_DTLB TOTAL     ACCESS:      35367  HIT:      35362  MISS:          5
cpu3_DTLB LOAD      ACCESS:      18738  HIT:      18734  MISS:          4
cpu3_DTLB RFO       ACCESS:      16629  HIT:      16628  MISS:          1
cpu3_DTLB PREFETCH  ACCESS:          0  HIT:          0  MISS:          0
cpu3_DTLB WRITEBACK ACCESS:          0  HIT:          0  MISS:          0
cpu3_DTLB TRANSLATION ACCESS:          0  HIT:          0  MISS:          0
cpu3_DTLB PREFETCH  REQUESTED:          0  ISSUED:          0  USEFUL:          0  USELESS:          0
cpu3_DTLB AVERAGE MISS LATENCY: 9 cycles
cpu3_ITLB TOTAL     ACCESS:      16659  HIT:      16659  MISS:          0
cpu3_ITLB LOAD      ACCESS:      16659  HIT:      16659  MISS:          0
cpu3_ITLB RFO       ACCESS:          0  HIT:          0  MISS:          0
cpu3_ITLB PREFETCH  ACCESS:          0  HIT:          0  MISS:          0
cpu3_ITLB WRITEBACK ACCESS:          0  HIT:          0  MISS:          0
cpu3_ITLB TRANSLATION ACCESS:          0  HIT:          0  MISS:          0
cpu3_ITLB PREFETCH  REQUESTED:          0  ISSUED:          0  USEFUL:          0  USELESS:          0
cpu3_ITLB AVERAGE MISS LATENCY: -nan cycles
cpu3_L1I TOTAL     ACCESS:       6391  HIT:       6391  MISS:          0
cpu3_L1I LOAD      ACCESS:       6391  HIT:       6391  MISS:          0
cpu3_L1I RFO       ACCESS:          0  HIT:          0  MISS:          0
cpu3_L1I PREFETCH  ACCESS:          0  HIT:          0  MISS:          0
cpu3_L1I WRITEBACK ACCESS:          0  HIT:          0  MISS:          0
cpu3_L1I TRANSLATION ACCESS:          0  HIT:          0  MISS:          0
cpu3_L1I PREFETCH  REQUESTED:          0  ISSUED:          0  USEFUL:          0  USELESS:          0
cpu3_L1I AVERAGE MISS LATENCY: -nan cycles
cpu3_STLB TOTAL     ACCESS:          5  HIT:          5  MISS:          0
cpu3_STLB LOAD      ACCESS:          4  HIT:          4  MISS:          0
cpu3_STLB RFO       ACCESS:          1  HIT:          1  MISS:          0
cpu3_STLB PREFETCH  ACCESS:          0  HIT:          0  MISS:          0
cpu3_STLB WRITEBACK ACCESS:          0  HIT:          0  MISS:          0
cpu3_STLB TRANSLATION ACCESS:          0  HIT:          0  MISS:          0
cpu3_STLB PREFETCH  REQUESTED:          0  ISSUED:          0  USEFUL:          0  USELESS:          0
cpu3_STLB AVERAGE MISS LATENCY: -nan cycles
cpu3_L1D TOTAL     ACCESS:      64922  HIT:      64920  MISS:          2
cpu3_L1D LOAD      ACCESS:      22448  HIT:      22446  MISS:          2
cpu3_L1D RFO       ACCESS:      42474  HIT:      42474  MISS:          0
cpu3_L1D PREFETCH  ACCESS:          0  HIT:          0  MISS:          0
cpu3_L1D WRITEBACK ACCESS:          0  HIT:          0  MISS:          0
cpu3_L1D TRANSLATION ACCESS:          0  HIT:          0  MISS:          0
cpu3_L1D PREFETCH  REQUESTED:          0  ISSUED:          0  USEFUL:          0  USELESS:          0
cpu3_L1D AVERAGE MISS LATENCY: 11 cycles
cpu3_L2C TOTAL     ACCESS:          2  HIT:          2  MISS:          0
cpu3_L2C LOAD      ACCESS:          2  HIT:          2  MISS:          0
cpu3_L2C RFO       ACCESS:          0  HIT:          0  MISS:          0
cpu3_L2C PREFETCH  ACCESS:          0  HIT:          0  MISS:          0
cpu3_L2C WRITEBACK ACCESS:          0  HIT:          0  MISS:          0
cpu3_L2C TRANSLATION ACCESS:          0  HIT:          0  MISS:          0
cpu3_L2C PREFETCH  REQUESTED:          0  ISSUED:          0  USEFUL:          0  USELESS:          0
cpu3_L2C AVERAGE MISS LATENCY: -nan cycles

DRAM Statistics
 CHANNEL 0
 RQ ROW_BUFFER_HIT:          9  ROW_BUFFER_MISS:         61
 DBUS AVG_CONGESTED_CYCLE:    3.85268
 WQ ROW_BUFFER_HIT:          0  ROW_BUFFER_MISS:          0  FULL:          0


CPU 0 Branch Prediction Accuracy: 98.0213% MPKI: 0.0533544 Average ROB Occupancy at Mispredict: 190.681
Branch type MPKI
BRANCH_DIRECT_JUMP: 0
BRANCH_INDIRECT: 0
BRANCH_CONDITIONAL: 0.0533556
BRANCH_DIRECT_CALL: 0
BRANCH_INDIRECT_CALL: 0
BRANCH_RETURN: 0


CPU 1 Branch Prediction Accuracy: 97.0884% MPKI: 0.0879025 Average ROB Occupancy at Mispredict: 90.8721
Branch type MPKI
BRANCH_DIRECT_JUMP: 0
BRANCH_INDIRECT: 0.000202546
BRANCH_CONDITIONAL: 0.0877023
BRANCH_DIRECT_CALL: 0
BRANCH_INDIRECT_CALL: 0
BRANCH_RETURN: 0


CPU 2 Branch Prediction Accuracy: 97.9547% MPKI: 0.0555639 Average ROB Occupancy at Mispredict: 185.88
Branch type MPKI
BRANCH_DIRECT_JUMP: 0
BRANCH_INDIRECT: 0
BRANCH_CONDITIONAL: 0.0555646
BRANCH_DIRECT_CALL: 0
BRANCH_INDIRECT_CALL: 0
BRANCH_RETURN: 0


CPU 3 Branch Prediction Accuracy: 97.9398% MPKI: 0.0557853 Average ROB Occupancy at Mispredict: 185.105
Branch type MPKI
BRANCH_DIRECT_JUMP: 0
BRANCH_INDIRECT: 0
BRANCH_CONDITIONAL: 0.0557853
BRANCH_DIRECT_CALL: 0
BRANCH_INDIRECT_CALL: 0
BRANCH_RETURN: 0

(Simulation time: 0 hr 2 min 28 sec) 
Finished CPU 1 instructions: 10000000 cycles: 5864761 cumulative IPC: 1.7051 (Simulation time: 0 hr 2 min 30 sec) 
