
*** ChampSim Multicore Out-of-Order Simulator ***

Warmup Instructions: 2000000
Simulation Instructions: 5000000
Number of CPUs: 2
Off-chip DRAM Size: 4 GiB Channels: 1 Width: 64-bit Data Rate: 3200 MT/s

VirtualMemory physical capacity: 8588881920 num_ppages: 2096895
VirtualMemory page size: 4096 log2_page_size: 12

CPU 0 runs /home/alexcato/Documents/Proyecto_electrico/ChampSim_GUI/traces/600.perlbench_s-210B.champsimtrace.xz
CPU 1 runs /home/alexcato/Documents/Proyecto_electrico/ChampSim_GUI/traces/600.perlbench_s-210B.champsimtrace.xz
CPU 0 Bimodal branch predictor
Basic BTB sets: 1024 ways: 8 indirect buffer size: 4096 RAS size: 64
CPU 1 Bimodal branch predictor
Basic BTB sets: 1024 ways: 8 indirect buffer size: 4096 RAS size: 64


ChampSim completed all CPUs

Total Simulation Statistics (not including warmup)

CPU 0 cumulative IPC: 3.99 instructions: 399000 cycles: 100000
cpu0_DTLB TOTAL     ACCESS:      68818  HIT:      68629  MISS:        189
cpu0_DTLB LOAD      ACCESS:      37241  HIT:      37141  MISS:        100
cpu0_DTLB RFO       ACCESS:      31577  HIT:      31488  MISS:         89
cpu0_DTLB PREFETCH  ACCESS:          0  HIT:          0  MISS:          0
cpu0_DTLB WRITEBACK ACCESS:          0  HIT:          0  MISS:          0
cpu0_ITLB TOTAL     ACCESS:      12540  HIT:      12512  MISS:         28
cpu0_ITLB LOAD      ACCESS:      12540  HIT:      12512  MISS:         28
cpu0_ITLB RFO       ACCESS:          0  HIT:          0  MISS:          0
cpu0_ITLB PREFETCH  ACCESS:          0  HIT:          0  MISS:          0
cpu0_ITLB WRITEBACK ACCESS:          0  HIT:          0  MISS:          0
cpu0_L1I TOTAL     ACCESS:      43191  HIT:      43031  MISS:        160
cpu0_L1I LOAD      ACCESS:      43191  HIT:      43031  MISS:        160
cpu0_L1I RFO       ACCESS:          0  HIT:          0  MISS:          0
cpu0_L1I PREFETCH  ACCESS:          0  HIT:          0  MISS:          0
cpu0_L1I WRITEBACK ACCESS:          0  HIT:          0  MISS:          0
cpu0_STLB TOTAL     ACCESS:        217  HIT:        136  MISS:         81
cpu0_STLB LOAD      ACCESS:        128  HIT:         53  MISS:         75
cpu0_STLB RFO       ACCESS:         89  HIT:         83  MISS:          6
cpu0_STLB PREFETCH  ACCESS:          0  HIT:          0  MISS:          0
cpu0_STLB WRITEBACK ACCESS:          0  HIT:          0  MISS:          0
cpu0_L1D TOTAL     ACCESS:     132642  HIT:     132440  MISS:        202
cpu0_L1D LOAD      ACCESS:      47556  HIT:      47384  MISS:        172
cpu0_L1D RFO       ACCESS:      85001  HIT:      84991  MISS:         10
cpu0_L1D PREFETCH  ACCESS:          0  HIT:          0  MISS:          0
cpu0_L1D WRITEBACK ACCESS:          0  HIT:          0  MISS:          0
cpu0_L2C TOTAL     ACCESS:        362  HIT:          0  MISS:        362
cpu0_L2C LOAD      ACCESS:        332  HIT:          0  MISS:        332
cpu0_L2C RFO       ACCESS:         10  HIT:          0  MISS:         10
cpu0_L2C PREFETCH  ACCESS:          0  HIT:          0  MISS:          0
cpu0_L2C WRITEBACK ACCESS:          0  HIT:          0  MISS:          0
LLC TOTAL     ACCESS:        362  HIT:          0  MISS:        362
LLC LOAD      ACCESS:        332  HIT:          0  MISS:        332
LLC RFO       ACCESS:         10  HIT:          0  MISS:         10
LLC PREFETCH  ACCESS:          0  HIT:          0  MISS:          0
LLC WRITEBACK ACCESS:          0  HIT:          0  MISS:          0

CPU 1 cumulative IPC: 3.98936 instructions: 398936 cycles: 100000
cpu1_DTLB TOTAL     ACCESS:      68128  HIT:      67939  MISS:        189
cpu1_DTLB LOAD      ACCESS:      37170  HIT:      37071  MISS:         99
cpu1_DTLB RFO       ACCESS:      30958  HIT:      30868  MISS:         90
cpu1_DTLB PREFETCH  ACCESS:          0  HIT:          0  MISS:          0
cpu1_DTLB WRITEBACK ACCESS:          0  HIT:          0  MISS:          0
cpu1_ITLB TOTAL     ACCESS:      12533  HIT:      12505  MISS:         28
cpu1_ITLB LOAD      ACCESS:      12533  HIT:      12505  MISS:         28
cpu1_ITLB RFO       ACCESS:          0  HIT:          0  MISS:          0
cpu1_ITLB PREFETCH  ACCESS:          0  HIT:          0  MISS:          0
cpu1_ITLB WRITEBACK ACCESS:          0  HIT:          0  MISS:          0
cpu1_L1I TOTAL     ACCESS:      41768  HIT:      41608  MISS:        160
cpu1_L1I LOAD      ACCESS:      41768  HIT:      41608  MISS:        160
cpu1_L1I RFO       ACCESS:          0  HIT:          0  MISS:          0
cpu1_L1I PREFETCH  ACCESS:          0  HIT:          0  MISS:          0
cpu1_L1I WRITEBACK ACCESS:          0  HIT:          0  MISS:          0
cpu1_STLB TOTAL     ACCESS:        217  HIT:        136  MISS:         81
cpu1_STLB LOAD      ACCESS:        127  HIT:         53  MISS:         74
cpu1_STLB RFO       ACCESS:         90  HIT:         83  MISS:          7
cpu1_STLB PREFETCH  ACCESS:          0  HIT:          0  MISS:          0
cpu1_STLB WRITEBACK ACCESS:          0  HIT:          0  MISS:          0
cpu1_L1D TOTAL     ACCESS:     132083  HIT:     131881  MISS:        202
cpu1_L1D LOAD      ACCESS:      47074  HIT:      46903  MISS:        171
cpu1_L1D RFO       ACCESS:      84926  HIT:      84915  MISS:         11
cpu1_L1D PREFETCH  ACCESS:          0  HIT:          0  MISS:          0
cpu1_L1D WRITEBACK ACCESS:          0  HIT:          0  MISS:          0
cpu1_L2C TOTAL     ACCESS:        362  HIT:          0  MISS:        362
cpu1_L2C LOAD      ACCESS:        331  HIT:          0  MISS:        331
cpu1_L2C RFO       ACCESS:         11  HIT:          0  MISS:         11
cpu1_L2C PREFETCH  ACCESS:          0  HIT:          0  MISS:          0
cpu1_L2C WRITEBACK ACCESS:          0  HIT:          0  MISS:          0
LLC TOTAL     ACCESS:        362  HIT:          0  MISS:        362
LLC LOAD      ACCESS:        331  HIT:          0  MISS:        331
LLC RFO       ACCESS:         11  HIT:          0  MISS:         11
LLC PREFETCH  ACCESS:          0  HIT:          0  MISS:          0
LLC WRITEBACK ACCESS:          0  HIT:          0  MISS:          0

Region of Interest Statistics

CPU 0 cumulative IPC: 3.99 instructions: 399000 cycles: 100000
cpu0_DTLB TOTAL     ACCESS:      68818  HIT:      68629  MISS:        189
cpu0_DTLB LOAD      ACCESS:      37241  HIT:      37141  MISS:        100
cpu0_DTLB RFO       ACCESS:      31577  HIT:      31488  MISS:         89
cpu0_DTLB PREFETCH  ACCESS:          0  HIT:          0  MISS:          0
cpu0_DTLB WRITEBACK ACCESS:          0  HIT:          0  MISS:          0
cpu0_DTLB TRANSLATION ACCESS:          0  HIT:          0  MISS:          0
cpu0_DTLB PREFETCH  REQUESTED:          0  ISSUED:          0  USEFUL:          0  USELESS:          0
cpu0_DTLB AVERAGE MISS LATENCY: 0 cycles
cpu0_ITLB TOTAL     ACCESS:      12540  HIT:      12512  MISS:         28
cpu0_ITLB LOAD      ACCESS:      12540  HIT:      12512  MISS:         28
cpu0_ITLB RFO       ACCESS:          0  HIT:          0  MISS:          0
cpu0_ITLB PREFETCH  ACCESS:          0  HIT:          0  MISS:          0
cpu0_ITLB WRITEBACK ACCESS:          0  HIT:          0  MISS:          0
cpu0_ITLB TRANSLATION ACCESS:          0  HIT:          0  MISS:          0
cpu0_ITLB PREFETCH  REQUESTED:          0  ISSUED:          0  USEFUL:          0  USELESS:          0
cpu0_ITLB AVERAGE MISS LATENCY: 0 cycles
cpu0_L1I TOTAL     ACCESS:      43191  HIT:      43031  MISS:        160
cpu0_L1I LOAD      ACCESS:      43191  HIT:      43031  MISS:        160
cpu0_L1I RFO       ACCESS:          0  HIT:          0  MISS:          0
cpu0_L1I PREFETCH  ACCESS:          0  HIT:          0  MISS:          0
cpu0_L1I WRITEBACK ACCESS:          0  HIT:          0  MISS:          0
cpu0_L1I TRANSLATION ACCESS:          0  HIT:          0  MISS:          0
cpu0_L1I PREFETCH  REQUESTED:          0  ISSUED:          0  USEFUL:          0  USELESS:          0
cpu0_L1I AVERAGE MISS LATENCY: 0 cycles
cpu0_STLB TOTAL     ACCESS:        217  HIT:        136  MISS:         81
cpu0_STLB LOAD      ACCESS:        128  HIT:         53  MISS:         75
cpu0_STLB RFO       ACCESS:         89  HIT:         83  MISS:          6
cpu0_STLB PREFETCH  ACCESS:          0  HIT:          0  MISS:          0
cpu0_STLB WRITEBACK ACCESS:          0  HIT:          0  MISS:          0
cpu0_STLB TRANSLATION ACCESS:          0  HIT:          0  MISS:          0
cpu0_STLB PREFETCH  REQUESTED:          0  ISSUED:          0  USEFUL:          0  USELESS:          0
cpu0_STLB AVERAGE MISS LATENCY: 0 cycles
cpu0_L1D TOTAL     ACCESS:     132642  HIT:     132440  MISS:        202
cpu0_L1D LOAD      ACCESS:      47556  HIT:      47384  MISS:        172
cpu0_L1D RFO       ACCESS:      85001  HIT:      84991  MISS:         10
cpu0_L1D PREFETCH  ACCESS:          0  HIT:          0  MISS:          0
cpu0_L1D WRITEBACK ACCESS:          0  HIT:          0  MISS:          0
cpu0_L1D TRANSLATION ACCESS:         85  HIT:         65  MISS:         20
cpu0_L1D PREFETCH  REQUESTED:          0  ISSUED:          0  USEFUL:          0  USELESS:          0
cpu0_L1D AVERAGE MISS LATENCY: 0 cycles
cpu0_L2C TOTAL     ACCESS:        362  HIT:          0  MISS:        362
cpu0_L2C LOAD      ACCESS:        332  HIT:          0  MISS:        332
cpu0_L2C RFO       ACCESS:         10  HIT:          0  MISS:         10
cpu0_L2C PREFETCH  ACCESS:          0  HIT:          0  MISS:          0
cpu0_L2C WRITEBACK ACCESS:          0  HIT:          0  MISS:          0
cpu0_L2C TRANSLATION ACCESS:         20  HIT:          0  MISS:         20
cpu0_L2C PREFETCH  REQUESTED:          0  ISSUED:          0  USEFUL:          0  USELESS:          0
cpu0_L2C AVERAGE MISS LATENCY: 0 cycles
LLC TOTAL     ACCESS:        362  HIT:          0  MISS:        362
LLC LOAD      ACCESS:        332  HIT:          0  MISS:        332
LLC RFO       ACCESS:         10  HIT:          0  MISS:         10
LLC PREFETCH  ACCESS:          0  HIT:          0  MISS:          0
LLC WRITEBACK ACCESS:          0  HIT:          0  MISS:          0
LLC TRANSLATION ACCESS:         20  HIT:          0  MISS:         20
LLC PREFETCH  REQUESTED:          0  ISSUED:          0  USEFUL:          0  USELESS:          0
LLC AVERAGE MISS LATENCY: 0 cycles

CPU 1 cumulative IPC: 3.98936 instructions: 398936 cycles: 100000
cpu1_DTLB TOTAL     ACCESS:      68128  HIT:      67939  MISS:        189
cpu1_DTLB LOAD      ACCESS:      37170  HIT:      37071  MISS:         99
cpu1_DTLB RFO       ACCESS:      30958  HIT:      30868  MISS:         90
cpu1_DTLB PREFETCH  ACCESS:          0  HIT:          0  MISS:          0
cpu1_DTLB WRITEBACK ACCESS:          0  HIT:          0  MISS:          0
cpu1_DTLB TRANSLATION ACCESS:          0  HIT:          0  MISS:          0
cpu1_DTLB PREFETCH  REQUESTED:          0  ISSUED:          0  USEFUL:          0  USELESS:          0
cpu1_DTLB AVERAGE MISS LATENCY: 0 cycles
cpu1_ITLB TOTAL     ACCESS:      12533  HIT:      12505  MISS:         28
cpu1_ITLB LOAD      ACCESS:      12533  HIT:      12505  MISS:         28
cpu1_ITLB RFO       ACCESS:          0  HIT:          0  MISS:          0
cpu1_ITLB PREFETCH  ACCESS:          0  HIT:          0  MISS:          0
cpu1_ITLB WRITEBACK ACCESS:          0  HIT:          0  MISS:          0
cpu1_ITLB TRANSLATION ACCESS:          0  HIT:          0  MISS:          0
cpu1_ITLB PREFETCH  REQUESTED:          0  ISSUED:          0  USEFUL:          0  USELESS:          0
cpu1_ITLB AVERAGE MISS LATENCY: 0 cycles
cpu1_L1I TOTAL     ACCESS:      41768  HIT:      41608  MISS:        160
cpu1_L1I LOAD      ACCESS:      41768  HIT:      41608  MISS:        160
cpu1_L1I RFO       ACCESS:          0  HIT:          0  MISS:          0
cpu1_L1I PREFETCH  ACCESS:          0  HIT:          0  MISS:          0
cpu1_L1I WRITEBACK ACCESS:          0  HIT:          0  MISS:          0
cpu1_L1I TRANSLATION ACCESS:          0  HIT:          0  MISS:          0
cpu1_L1I PREFETCH  REQUESTED:          0  ISSUED:          0  USEFUL:          0  USELESS:          0
cpu1_L1I AVERAGE MISS LATENCY: 0 cycles
cpu1_STLB TOTAL     ACCESS:        217  HIT:        136  MISS:         81
cpu1_STLB LOAD      ACCESS:        127  HIT:         53  MISS:         74
cpu1_STLB RFO       ACCESS:         90  HIT:         83  MISS:          7
cpu1_STLB PREFETCH  ACCESS:          0  HIT:          0  MISS:          0
cpu1_STLB WRITEBACK ACCESS:          0  HIT:          0  MISS:          0
cpu1_STLB TRANSLATION ACCESS:          0  HIT:          0  MISS:          0
cpu1_STLB PREFETCH  REQUESTED:          0  ISSUED:          0  USEFUL:          0  USELESS:          0
cpu1_STLB AVERAGE MISS LATENCY: 0 cycles
cpu1_L1D TOTAL     ACCESS:     132083  HIT:     131881  MISS:        202
cpu1_L1D LOAD      ACCESS:      47074  HIT:      46903  MISS:        171
cpu1_L1D RFO       ACCESS:      84926  HIT:      84915  MISS:         11
cpu1_L1D PREFETCH  ACCESS:          0  HIT:          0  MISS:          0
cpu1_L1D WRITEBACK ACCESS:          0  HIT:          0  MISS:          0
cpu1_L1D TRANSLATION ACCESS:         83  HIT:         63  MISS:         20
cpu1_L1D PREFETCH  REQUESTED:          0  ISSUED:          0  USEFUL:          0  USELESS:          0
cpu1_L1D AVERAGE MISS LATENCY: 0 cycles
cpu1_L2C TOTAL     ACCESS:        362  HIT:          0  MISS:        362
cpu1_L2C LOAD      ACCESS:        331  HIT:          0  MISS:        331
cpu1_L2C RFO       ACCESS:         11  HIT:          0  MISS:         11
cpu1_L2C PREFETCH  ACCESS:          0  HIT:          0  MISS:          0
cpu1_L2C WRITEBACK ACCESS:          0  HIT:          0  MISS:          0
cpu1_L2C TRANSLATION ACCESS:         20  HIT:          0  MISS:         20
cpu1_L2C PREFETCH  REQUESTED:          0  ISSUED:          0  USEFUL:          0  USELESS:          0
cpu1_L2C AVERAGE MISS LATENCY: 0 cycles
LLC TOTAL     ACCESS:        362  HIT:          0  MISS:        362
LLC LOAD      ACCESS:        331  HIT:          0  MISS:        331
LLC RFO       ACCESS:         11  HIT:          0  MISS:         11
LLC PREFETCH  ACCESS:          0  HIT:          0  MISS:          0
LLC WRITEBACK ACCESS:          0  HIT:          0  MISS:          0
LLC TRANSLATION ACCESS:         20  HIT:          0  MISS:         20
LLC PREFETCH  REQUESTED:          0  ISSUED:          0  USEFUL:          0  USELESS:          0
LLC AVERAGE MISS LATENCY: 0 cycles

DRAM Statistics
 CHANNEL 0
 RQ ROW_BUFFER_HIT:          0  ROW_BUFFER_MISS:          0
 DBUS AVG_CONGESTED_CYCLE: -
 WQ ROW_BUFFER_HIT:          0  ROW_BUFFER_MISS:          0  FULL:          0


CPU 0 Branch Prediction Accuracy: 97.6442% MPKI: 7.54063e-14 Average ROB Occupancy at Mispredict: 329.59
Branch type MPKI
BRANCH_DIRECT_JUMP: 0.0802005
BRANCH_INDIRECT: 0.0426065
BRANCH_CONDITIONAL: 3.26316
BRANCH_DIRECT_CALL: 0.0300752
BRANCH_INDIRECT_CALL: 0.0250627
BRANCH_RETURN: 0.0451128


CPU 1 Branch Prediction Accuracy: 97.6439% MPKI: 7.54063e-14 Average ROB Occupancy at Mispredict: 328.884
Branch type MPKI
BRANCH_DIRECT_JUMP: 0.0802134
BRANCH_INDIRECT: 0.0426134
BRANCH_CONDITIONAL: 3.26368
BRANCH_DIRECT_CALL: 0.03008
BRANCH_INDIRECT_CALL: 0.0250667
BRANCH_RETURN: 0.04512

(Simulation time: 0 hr 0 min 2 sec) 


ChampSim completed all CPUs

Total Simulation Statistics (not including warmup)

CPU 0 cumulative IPC: 3.9887 instructions: 797740 cycles: 200000
cpu0_DTLB TOTAL     ACCESS:      68848  HIT:      68527  MISS:        321
cpu0_DTLB LOAD      ACCESS:      37033  HIT:      36739  MISS:        294
cpu0_DTLB RFO       ACCESS:      31815  HIT:      31788  MISS:         27
cpu0_DTLB PREFETCH  ACCESS:          0  HIT:          0  MISS:          0
cpu0_DTLB WRITEBACK ACCESS:          0  HIT:          0  MISS:          0
cpu0_ITLB TOTAL     ACCESS:      13736  HIT:      13712  MISS:         24
cpu0_ITLB LOAD      ACCESS:      13736  HIT:      13712  MISS:         24
cpu0_ITLB RFO       ACCESS:          0  HIT:          0  MISS:          0
cpu0_ITLB PREFETCH  ACCESS:          0  HIT:          0  MISS:          0
cpu0_ITLB WRITEBACK ACCESS:          0  HIT:          0  MISS:          0
cpu0_L1I TOTAL     ACCESS:      44882  HIT:      44617  MISS:        265
cpu0_L1I LOAD      ACCESS:      44882  HIT:      44617  MISS:        265
cpu0_L1I RFO       ACCESS:          0  HIT:          0  MISS:          0
cpu0_L1I PREFETCH  ACCESS:          0  HIT:          0  MISS:          0
cpu0_L1I WRITEBACK ACCESS:          0  HIT:          0  MISS:          0
cpu0_STLB TOTAL     ACCESS:        345  HIT:        220  MISS:        125
cpu0_STLB LOAD      ACCESS:        318  HIT:        198  MISS:        120
cpu0_STLB RFO       ACCESS:         27  HIT:         22  MISS:          5
cpu0_STLB PREFETCH  ACCESS:          0  HIT:          0  MISS:          0
cpu0_STLB WRITEBACK ACCESS:          0  HIT:          0  MISS:          0
cpu0_L1D TOTAL     ACCESS:     126848  HIT:     126375  MISS:        473
cpu0_L1D LOAD      ACCESS:      44971  HIT:      44529  MISS:        442
cpu0_L1D RFO       ACCESS:      81757  HIT:      81728  MISS:         29
cpu0_L1D PREFETCH  ACCESS:          0  HIT:          0  MISS:          0
cpu0_L1D WRITEBACK ACCESS:          0  HIT:          0  MISS:          0
cpu0_L2C TOTAL     ACCESS:        744  HIT:         54  MISS:        690
cpu0_L2C LOAD      ACCESS:        707  HIT:         46  MISS:        661
cpu0_L2C RFO       ACCESS:         29  HIT:          2  MISS:         27
cpu0_L2C PREFETCH  ACCESS:          0  HIT:          0  MISS:          0
cpu0_L2C WRITEBACK ACCESS:          6  HIT:          6  MISS:          0
LLC TOTAL     ACCESS:        690  HIT:          0  MISS:        690
LLC LOAD      ACCESS:        661  HIT:          0  MISS:        661
LLC RFO       ACCESS:         27  HIT:          0  MISS:         27
LLC PREFETCH  ACCESS:          0  HIT:          0  MISS:          0
LLC WRITEBACK ACCESS:          0  HIT:          0  MISS:          0

CPU 1 cumulative IPC: 3.98667 instructions: 797334 cycles: 200000
cpu1_DTLB TOTAL     ACCESS:      68544  HIT:      68228  MISS:        316
cpu1_DTLB LOAD      ACCESS:      37133  HIT:      36843  MISS:        290
cpu1_DTLB RFO       ACCESS:      31411  HIT:      31385  MISS:         26
cpu1_DTLB PREFETCH  ACCESS:          0  HIT:          0  MISS:          0
cpu1_DTLB WRITEBACK ACCESS:          0  HIT:          0  MISS:          0
cpu1_ITLB TOTAL     ACCESS:      13725  HIT:      13701  MISS:         24
cpu1_ITLB LOAD      ACCESS:      13725  HIT:      13701  MISS:         24
cpu1_ITLB RFO       ACCESS:          0  HIT:          0  MISS:          0
cpu1_ITLB PREFETCH  ACCESS:          0  HIT:          0  MISS:          0
cpu1_ITLB WRITEBACK ACCESS:          0  HIT:          0  MISS:          0
cpu1_L1I TOTAL     ACCESS:      43093  HIT:      42828  MISS:        265
cpu1_L1I LOAD      ACCESS:      43093  HIT:      42828  MISS:        265
cpu1_L1I RFO       ACCESS:          0  HIT:          0  MISS:          0
cpu1_L1I PREFETCH  ACCESS:          0  HIT:          0  MISS:          0
cpu1_L1I WRITEBACK ACCESS:          0  HIT:          0  MISS:          0
cpu1_STLB TOTAL     ACCESS:        340  HIT:        215  MISS:        125
cpu1_STLB LOAD      ACCESS:        314  HIT:        194  MISS:        120
cpu1_STLB RFO       ACCESS:         26  HIT:         21  MISS:          5
cpu1_STLB PREFETCH  ACCESS:          0  HIT:          0  MISS:          0
cpu1_STLB WRITEBACK ACCESS:          0  HIT:          0  MISS:          0
cpu1_L1D TOTAL     ACCESS:     126669  HIT:     126196  MISS:        473
cpu1_L1D LOAD      ACCESS:      44873  HIT:      44431  MISS:        442
cpu1_L1D RFO       ACCESS:      81679  HIT:      81650  MISS:         29
cpu1_L1D PREFETCH  ACCESS:          0  HIT:          0  MISS:          0
cpu1_L1D WRITEBACK ACCESS:          0  HIT:          0  MISS:          0
cpu1_L2C TOTAL     ACCESS:        744  HIT:         54  MISS:        690
cpu1_L2C LOAD      ACCESS:        707  HIT:         46  MISS:        661
cpu1_L2C RFO       ACCESS:         29  HIT:          2  MISS:         27
cpu1_L2C PREFETCH  ACCESS:          0  HIT:          0  MISS:          0
cpu1_L2C WRITEBACK ACCESS:          6  HIT:          6  MISS:          0
LLC TOTAL     ACCESS:        690  HIT:          0  MISS:        690
LLC LOAD      ACCESS:        661  HIT:          0  MISS:        661
LLC RFO       ACCESS:         27  HIT:          0  MISS:         27
LLC PREFETCH  ACCESS:          0  HIT:          0  MISS:          0
LLC WRITEBACK ACCESS:          0  HIT:          0  MISS:          0

Region of Interest Statistics

CPU 0 cumulative IPC: 3.9887 instructions: 797740 cycles: 200000
cpu0_DTLB TOTAL     ACCESS:      68848  HIT:      68527  MISS:        321
cpu0_DTLB LOAD      ACCESS:      37033  HIT:      36739  MISS:        294
cpu0_DTLB RFO       ACCESS:      31815  HIT:      31788  MISS:         27
cpu0_DTLB PREFETCH  ACCESS:          0  HIT:          0  MISS:          0
cpu0_DTLB WRITEBACK ACCESS:          0  HIT:          0  MISS:          0
cpu0_DTLB TRANSLATION ACCESS:          0  HIT:          0  MISS:          0
cpu0_DTLB PREFETCH  REQUESTED:          0  ISSUED:          0  USEFUL:          0  USELESS:          0
cpu0_DTLB AVERAGE MISS LATENCY: 0 cycles
cpu0_ITLB TOTAL     ACCESS:      13736  HIT:      13712  MISS:         24
cpu0_ITLB LOAD      ACCESS:      13736  HIT:      13712  MISS:         24
cpu0_ITLB RFO       ACCESS:          0  HIT:          0  MISS:          0
cpu0_ITLB PREFETCH  ACCESS:          0  HIT:          0  MISS:          0
cpu0_ITLB WRITEBACK ACCESS:          0  HIT:          0  MISS:          0
cpu0_ITLB TRANSLATION ACCESS:          0  HIT:          0  MISS:          0
cpu0_ITLB PREFETCH  REQUESTED:          0  ISSUED:          0  USEFUL:          0  USELESS:          0
cpu0_ITLB AVERAGE MISS LATENCY: 0 cycles
cpu0_L1I TOTAL     ACCESS:      44882  HIT:      44617  MISS:        265
cpu0_L1I LOAD      ACCESS:      44882  HIT:      44617  MISS:        265
cpu0_L1I RFO       ACCESS:          0  HIT:          0  MISS:          0
cpu0_L1I PREFETCH  ACCESS:          0  HIT:          0  MISS:          0
cpu0_L1I WRITEBACK ACCESS:          0  HIT:          0  MISS:          0
cpu0_L1I TRANSLATION ACCESS:          0  HIT:          0  MISS:          0
cpu0_L1I PREFETCH  REQUESTED:          0  ISSUED:          0  USEFUL:          0  USELESS:          0
cpu0_L1I AVERAGE MISS LATENCY: 0 cycles
cpu0_STLB TOTAL     ACCESS:        345  HIT:        220  MISS:        125
cpu0_STLB LOAD      ACCESS:        318  HIT:        198  MISS:        120
cpu0_STLB RFO       ACCESS:         27  HIT:         22  MISS:          5
cpu0_STLB PREFETCH  ACCESS:          0  HIT:          0  MISS:          0
cpu0_STLB WRITEBACK ACCESS:          0  HIT:          0  MISS:          0
cpu0_STLB TRANSLATION ACCESS:          0  HIT:          0  MISS:          0
cpu0_STLB PREFETCH  REQUESTED:          0  ISSUED:          0  USEFUL:          0  USELESS:          0
cpu0_STLB AVERAGE MISS LATENCY: 0 cycles
cpu0_L1D TOTAL     ACCESS:     126848  HIT:     126375  MISS:        473
cpu0_L1D LOAD      ACCESS:      44971  HIT:      44529  MISS:        442
cpu0_L1D RFO       ACCESS:      81757  HIT:      81728  MISS:         29
cpu0_L1D PREFETCH  ACCESS:          0  HIT:          0  MISS:          0
cpu0_L1D WRITEBACK ACCESS:          0  HIT:          0  MISS:          0
cpu0_L1D TRANSLATION ACCESS:        120  HIT:        118  MISS:          2
cpu0_L1D PREFETCH  REQUESTED:          0  ISSUED:          0  USEFUL:          0  USELESS:          0
cpu0_L1D AVERAGE MISS LATENCY: 0 cycles
cpu0_L2C TOTAL     ACCESS:        744  HIT:         54  MISS:        690
cpu0_L2C LOAD      ACCESS:        707  HIT:         46  MISS:        661
cpu0_L2C RFO       ACCESS:         29  HIT:          2  MISS:         27
cpu0_L2C PREFETCH  ACCESS:          0  HIT:          0  MISS:          0
cpu0_L2C WRITEBACK ACCESS:          6  HIT:          6  MISS:          0
cpu0_L2C TRANSLATION ACCESS:          2  HIT:          0  MISS:          2
cpu0_L2C PREFETCH  REQUESTED:          0  ISSUED:          0  USEFUL:          0  USELESS:          0
cpu0_L2C AVERAGE MISS LATENCY: 0 cycles
LLC TOTAL     ACCESS:        690  HIT:          0  MISS:        690
LLC LOAD      ACCESS:        661  HIT:          0  MISS:        661
LLC RFO       ACCESS:         27  HIT:          0  MISS:         27
LLC PREFETCH  ACCESS:          0  HIT:          0  MISS:          0
LLC WRITEBACK ACCESS:          0  HIT:          0  MISS:          0
LLC TRANSLATION ACCESS:          2  HIT:          0  MISS:          2
LLC PREFETCH  REQUESTED:          0  ISSUED:          0  USEFUL:          0  USELESS:          0
LLC AVERAGE MISS LATENCY: 0 cycles

CPU 1 cumulative IPC: 3.98667 instructions: 797334 cycles: 200000
cpu1_DTLB TOTAL     ACCESS:      68544  HIT:      68228  MISS:        316
cpu1_DTLB LOAD      ACCESS:      37133  HIT:      36843  MISS:        290
cpu1_DTLB RFO       ACCESS:      31411  HIT:      31385  MISS:         26
cpu1_DTLB PREFETCH  ACCESS:          0  HIT:          0  MISS:          0
cpu1_DTLB WRITEBACK ACCESS:          0  HIT:          0  MISS:          0
cpu1_DTLB TRANSLATION ACCESS:          0  HIT:          0  MISS:          0
cpu1_DTLB PREFETCH  REQUESTED:          0  ISSUED:          0  USEFUL:          0  USELESS:          0
cpu1_DTLB AVERAGE MISS LATENCY: 0 cycles
cpu1_ITLB TOTAL     ACCESS:      13725  HIT:      13701  MISS:         24
cpu1_ITLB LOAD      ACCESS:      13725  HIT:      13701  MISS:         24
cpu1_ITLB RFO       ACCESS:          0  HIT:          0  MISS:          0
cpu1_ITLB PREFETCH  ACCESS:          0  HIT:          0  MISS:          0
cpu1_ITLB WRITEBACK ACCESS:          0  HIT:          0  MISS:          0
cpu1_ITLB TRANSLATION ACCESS:          0  HIT:          0  MISS:          0
cpu1_ITLB PREFETCH  REQUESTED:          0  ISSUED:          0  USEFUL:          0  USELESS:          0
cpu1_ITLB AVERAGE MISS LATENCY: 0 cycles
cpu1_L1I TOTAL     ACCESS:      43093  HIT:      42828  MISS:        265
cpu1_L1I LOAD      ACCESS:      43093  HIT:      42828  MISS:        265
cpu1_L1I RFO       ACCESS:          0  HIT:          0  MISS:          0
cpu1_L1I PREFETCH  ACCESS:          0  HIT:          0  MISS:          0
cpu1_L1I WRITEBACK ACCESS:          0  HIT:          0  MISS:          0
cpu1_L1I TRANSLATION ACCESS:          0  HIT:          0  MISS:          0
cpu1_L1I PREFETCH  REQUESTED:          0  ISSUED:          0  USEFUL:          0  USELESS:          0
cpu1_L1I AVERAGE MISS LATENCY: 0 cycles
cpu1_STLB TOTAL     ACCESS:        340  HIT:        215  MISS:        125
cpu1_STLB LOAD      ACCESS:        314  HIT:        194  MISS:        120
cpu1_STLB RFO       ACCESS:         26  HIT:         21  MISS:          5
cpu1_STLB PREFETCH  ACCESS:          0  HIT:          0  MISS:          0
cpu1_STLB WRITEBACK ACCESS:          0  HIT:          0  MISS:          0
cpu1_STLB TRANSLATION ACCESS:          0  HIT:          0  MISS:          0
cpu1_STLB PREFETCH  REQUESTED:          0  ISSUED:          0  USEFUL:          0  USELESS:          0
cpu1_STLB AVERAGE MISS LATENCY: 0 cycles
cpu1_L1D TOTAL     ACCESS:     126669  HIT:     126196  MISS:        473
cpu1_L1D LOAD      ACCESS:      44873  HIT:      44431  MISS:        442
cpu1_L1D RFO       ACCESS:      81679  HIT:      81650  MISS:         29
cpu1_L1D PREFETCH  ACCESS:          0  HIT:          0  MISS:          0
cpu1_L1D WRITEBACK ACCESS:          0  HIT:          0  MISS:          0
cpu1_L1D TRANSLATION ACCESS:        117  HIT:        115  MISS:          2
cpu1_L1D PREFETCH  REQUESTED:          0  ISSUED:          0  USEFUL:          0  USELESS:          0
cpu1_L1D AVERAGE MISS LATENCY: 0 cycles
cpu1_L2C TOTAL     ACCESS:        744  HIT:         54  MISS:        690
cpu1_L2C LOAD      ACCESS:        707  HIT:         46  MISS:        661
cpu1_L2C RFO       ACCESS:         29  HIT:          2  MISS:         27
cpu1_L2C PREFETCH  ACCESS:          0  HIT:          0  MISS:          0
cpu1_L2C WRITEBACK ACCESS:          6  HIT:          6  MISS:          0
cpu1_L2C TRANSLATION ACCESS:          2  HIT:          0  MISS:          2
cpu1_L2C PREFETCH  REQUESTED:          0  ISSUED:          0  USEFUL:          0  USELESS:          0
cpu1_L2C AVERAGE MISS LATENCY: 0 cycles
LLC TOTAL     ACCESS:        690  HIT:          0  MISS:        690
LLC LOAD      ACCESS:        661  HIT:          0  MISS:        661
LLC RFO       ACCESS:         27  HIT:          0  MISS:         27
LLC PREFETCH  ACCESS:          0  HIT:          0  MISS:          0
LLC WRITEBACK ACCESS:          0  HIT:          0  MISS:          0
LLC TRANSLATION ACCESS:          2  HIT:          0  MISS:          2
LLC PREFETCH  REQUESTED:          0  ISSUED:          0  USEFUL:          0  USELESS:          0
LLC AVERAGE MISS LATENCY: 0 cycles

DRAM Statistics
 CHANNEL 0
 RQ ROW_BUFFER_HIT:          0  ROW_BUFFER_MISS:          0
 DBUS AVG_CONGESTED_CYCLE: -
 WQ ROW_BUFFER_HIT:          0  ROW_BUFFER_MISS:          0  FULL:          0


CPU 0 Branch Prediction Accuracy: 97.334% MPKI: 8.60857e-14 Average ROB Occupancy at Mispredict: 290.889
Branch type MPKI
BRANCH_DIRECT_JUMP: 0.0589164
BRANCH_INDIRECT: 0.0175496
BRANCH_CONDITIONAL: 1.80385
BRANCH_DIRECT_CALL: 0.0363527
BRANCH_INDIRECT_CALL: 0.0376062
BRANCH_RETURN: 0.0363527


CPU 1 Branch Prediction Accuracy: 97.3319% MPKI: 8.60857e-14 Average ROB Occupancy at Mispredict: 290.47
Branch type MPKI
BRANCH_DIRECT_JUMP: 0.0589464
BRANCH_INDIRECT: 0.0175585
BRANCH_CONDITIONAL: 1.80476
BRANCH_DIRECT_CALL: 0.0363712
BRANCH_INDIRECT_CALL: 0.0376254
BRANCH_RETURN: 0.0363712

(Simulation time: 0 hr 0 min 3 sec) 


ChampSim completed all CPUs

Total Simulation Statistics (not including warmup)

CPU 0 cumulative IPC: 3.99247 instructions: 1197740 cycles: 300000
cpu0_DTLB TOTAL     ACCESS:      65912  HIT:      65860  MISS:         52
cpu0_DTLB LOAD      ACCESS:      33041  HIT:      33000  MISS:         41
cpu0_DTLB RFO       ACCESS:      32871  HIT:      32860  MISS:         11
cpu0_DTLB PREFETCH  ACCESS:          0  HIT:          0  MISS:          0
cpu0_DTLB WRITEBACK ACCESS:          0  HIT:          0  MISS:          0
cpu0_ITLB TOTAL     ACCESS:      13117  HIT:      13117  MISS:          0
cpu0_ITLB LOAD      ACCESS:      13117  HIT:      13117  MISS:          0
cpu0_ITLB RFO       ACCESS:          0  HIT:          0  MISS:          0
cpu0_ITLB PREFETCH  ACCESS:          0  HIT:          0  MISS:          0
cpu0_ITLB WRITEBACK ACCESS:          0  HIT:          0  MISS:          0
cpu0_L1I TOTAL     ACCESS:      44614  HIT:      44614  MISS:          0
cpu0_L1I LOAD      ACCESS:      44614  HIT:      44614  MISS:          0
cpu0_L1I RFO       ACCESS:          0  HIT:          0  MISS:          0
cpu0_L1I PREFETCH  ACCESS:          0  HIT:          0  MISS:          0
cpu0_L1I WRITEBACK ACCESS:          0  HIT:          0  MISS:          0
cpu0_STLB TOTAL     ACCESS:         52  HIT:         49  MISS:          3
cpu0_STLB LOAD      ACCESS:         41  HIT:         38  MISS:          3
cpu0_STLB RFO       ACCESS:         11  HIT:         11  MISS:          0
cpu0_STLB PREFETCH  ACCESS:          0  HIT:          0  MISS:          0
cpu0_STLB WRITEBACK ACCESS:          0  HIT:          0  MISS:          0
cpu0_L1D TOTAL     ACCESS:     126527  HIT:     126512  MISS:         15
cpu0_L1D LOAD      ACCESS:      40829  HIT:      40815  MISS:         14
cpu0_L1D RFO       ACCESS:      85695  HIT:      85695  MISS:          0
cpu0_L1D PREFETCH  ACCESS:          0  HIT:          0  MISS:          0
cpu0_L1D WRITEBACK ACCESS:          0  HIT:          0  MISS:          0
cpu0_L2C TOTAL     ACCESS:         15  HIT:          8  MISS:          7
cpu0_L2C LOAD      ACCESS:         14  HIT:          7  MISS:          7
cpu0_L2C RFO       ACCESS:          0  HIT:          0  MISS:          0
cpu0_L2C PREFETCH  ACCESS:          0  HIT:          0  MISS:          0
cpu0_L2C WRITEBACK ACCESS:          0  HIT:          0  MISS:          0
LLC TOTAL     ACCESS:          7  HIT:          0  MISS:          7
LLC LOAD      ACCESS:          7  HIT:          0  MISS:          7
LLC RFO       ACCESS:          0  HIT:          0  MISS:          0
LLC PREFETCH  ACCESS:          0  HIT:          0  MISS:          0
LLC WRITEBACK ACCESS:          0  HIT:          0  MISS:          0

CPU 1 cumulative IPC: 3.99111 instructions: 1197334 cycles: 300000
cpu1_DTLB TOTAL     ACCESS:      65672  HIT:      65620  MISS:         52
cpu1_DTLB LOAD      ACCESS:      33160  HIT:      33119  MISS:         41
cpu1_DTLB RFO       ACCESS:      32512  HIT:      32501  MISS:         11
cpu1_DTLB PREFETCH  ACCESS:          0  HIT:          0  MISS:          0
cpu1_DTLB WRITEBACK ACCESS:          0  HIT:          0  MISS:          0
cpu1_ITLB TOTAL     ACCESS:      13122  HIT:      13122  MISS:          0
cpu1_ITLB LOAD      ACCESS:      13122  HIT:      13122  MISS:          0
cpu1_ITLB RFO       ACCESS:          0  HIT:          0  MISS:          0
cpu1_ITLB PREFETCH  ACCESS:          0  HIT:          0  MISS:          0
cpu1_ITLB WRITEBACK ACCESS:          0  HIT:          0  MISS:          0
cpu1_L1I TOTAL     ACCESS:      43040  HIT:      43040  MISS:          0
cpu1_L1I LOAD      ACCESS:      43040  HIT:      43040  MISS:          0
cpu1_L1I RFO       ACCESS:          0  HIT:          0  MISS:          0
cpu1_L1I PREFETCH  ACCESS:          0  HIT:          0  MISS:          0
cpu1_L1I WRITEBACK ACCESS:          0  HIT:          0  MISS:          0
cpu1_STLB TOTAL     ACCESS:         52  HIT:         49  MISS:          3
cpu1_STLB LOAD      ACCESS:         41  HIT:         38  MISS:          3
cpu1_STLB RFO       ACCESS:         11  HIT:         11  MISS:          0
cpu1_STLB PREFETCH  ACCESS:          0  HIT:          0  MISS:          0
cpu1_STLB WRITEBACK ACCESS:          0  HIT:          0  MISS:          0
cpu1_L1D TOTAL     ACCESS:     126214  HIT:     126199  MISS:         15
cpu1_L1D LOAD      ACCESS:      40591  HIT:      40577  MISS:         14
cpu1_L1D RFO       ACCESS:      85620  HIT:      85620  MISS:          0
cpu1_L1D PREFETCH  ACCESS:          0  HIT:          0  MISS:          0
cpu1_L1D WRITEBACK ACCESS:          0  HIT:          0  MISS:          0
cpu1_L2C TOTAL     ACCESS:         15  HIT:          8  MISS:          7
cpu1_L2C LOAD      ACCESS:         14  HIT:          7  MISS:          7
cpu1_L2C RFO       ACCESS:          0  HIT:          0  MISS:          0
cpu1_L2C PREFETCH  ACCESS:          0  HIT:          0  MISS:          0
cpu1_L2C WRITEBACK ACCESS:          0  HIT:          0  MISS:          0
LLC TOTAL     ACCESS:          7  HIT:          0  MISS:          7
LLC LOAD      ACCESS:          7  HIT:          0  MISS:          7
LLC RFO       ACCESS:          0  HIT:          0  MISS:          0
LLC PREFETCH  ACCESS:          0  HIT:          0  MISS:          0
LLC WRITEBACK ACCESS:          0  HIT:          0  MISS:          0

Region of Interest Statistics

CPU 0 cumulative IPC: 3.99247 instructions: 1197740 cycles: 300000
cpu0_DTLB TOTAL     ACCESS:      65912  HIT:      65860  MISS:         52
cpu0_DTLB LOAD      ACCESS:      33041  HIT:      33000  MISS:         41
cpu0_DTLB RFO       ACCESS:      32871  HIT:      32860  MISS:         11
cpu0_DTLB PREFETCH  ACCESS:          0  HIT:          0  MISS:          0
cpu0_DTLB WRITEBACK ACCESS:          0  HIT:          0  MISS:          0
cpu0_DTLB TRANSLATION ACCESS:          0  HIT:          0  MISS:          0
cpu0_DTLB PREFETCH  REQUESTED:          0  ISSUED:          0  USEFUL:          0  USELESS:          0
cpu0_DTLB AVERAGE MISS LATENCY: 0 cycles
cpu0_ITLB TOTAL     ACCESS:      13117  HIT:      13117  MISS:          0
cpu0_ITLB LOAD      ACCESS:      13117  HIT:      13117  MISS:          0
cpu0_ITLB RFO       ACCESS:          0  HIT:          0  MISS:          0
cpu0_ITLB PREFETCH  ACCESS:          0  HIT:          0  MISS:          0
cpu0_ITLB WRITEBACK ACCESS:          0  HIT:          0  MISS:          0
cpu0_ITLB TRANSLATION ACCESS:          0  HIT:          0  MISS:          0
cpu0_ITLB PREFETCH  REQUESTED:          0  ISSUED:          0  USEFUL:          0  USELESS:          0
cpu0_ITLB AVERAGE MISS LATENCY: -nan cycles
cpu0_L1I TOTAL     ACCESS:      44614  HIT:      44614  MISS:          0
cpu0_L1I LOAD      ACCESS:      44614  HIT:      44614  MISS:          0
cpu0_L1I RFO       ACCESS:          0  HIT:          0  MISS:          0
cpu0_L1I PREFETCH  ACCESS:          0  HIT:          0  MISS:          0
cpu0_L1I WRITEBACK ACCESS:          0  HIT:          0  MISS:          0
cpu0_L1I TRANSLATION ACCESS:          0  HIT:          0  MISS:          0
cpu0_L1I PREFETCH  REQUESTED:          0  ISSUED:          0  USEFUL:          0  USELESS:          0
cpu0_L1I AVERAGE MISS LATENCY: -nan cycles
cpu0_STLB TOTAL     ACCESS:         52  HIT:         49  MISS:          3
cpu0_STLB LOAD      ACCESS:         41  HIT:         38  MISS:          3
cpu0_STLB RFO       ACCESS:         11  HIT:         11  MISS:          0
cpu0_STLB PREFETCH  ACCESS:          0  HIT:          0  MISS:          0
cpu0_STLB WRITEBACK ACCESS:          0  HIT:          0  MISS:          0
cpu0_STLB TRANSLATION ACCESS:          0  HIT:          0  MISS:          0
cpu0_STLB PREFETCH  REQUESTED:          0  ISSUED:          0  USEFUL:          0  USELESS:          0
cpu0_STLB AVERAGE MISS LATENCY: 0 cycles
cpu0_L1D TOTAL     ACCESS:     126527  HIT:     126512  MISS:         15
cpu0_L1D LOAD      ACCESS:      40829  HIT:      40815  MISS:         14
cpu0_L1D RFO       ACCESS:      85695  HIT:      85695  MISS:          0
cpu0_L1D PREFETCH  ACCESS:          0  HIT:          0  MISS:          0
cpu0_L1D WRITEBACK ACCESS:          0  HIT:          0  MISS:          0
cpu0_L1D TRANSLATION ACCESS:          3  HIT:          2  MISS:          1
cpu0_L1D PREFETCH  REQUESTED:          0  ISSUED:          0  USEFUL:          0  USELESS:          0
cpu0_L1D AVERAGE MISS LATENCY: 0 cycles
cpu0_L2C TOTAL     ACCESS:         15  HIT:          8  MISS:          7
cpu0_L2C LOAD      ACCESS:         14  HIT:          7  MISS:          7
cpu0_L2C RFO       ACCESS:          0  HIT:          0  MISS:          0
cpu0_L2C PREFETCH  ACCESS:          0  HIT:          0  MISS:          0
cpu0_L2C WRITEBACK ACCESS:          0  HIT:          0  MISS:          0
cpu0_L2C TRANSLATION ACCESS:          1  HIT:          1  MISS:          0
cpu0_L2C PREFETCH  REQUESTED:          0  ISSUED:          0  USEFUL:          0  USELESS:          0
cpu0_L2C AVERAGE MISS LATENCY: 0 cycles
LLC TOTAL     ACCESS:          7  HIT:          0  MISS:          7
LLC LOAD      ACCESS:          7  HIT:          0  MISS:          7
LLC RFO       ACCESS:          0  HIT:          0  MISS:          0
LLC PREFETCH  ACCESS:          0  HIT:          0  MISS:          0
LLC WRITEBACK ACCESS:          0  HIT:          0  MISS:          0
LLC TRANSLATION ACCESS:          0  HIT:          0  MISS:          0
LLC PREFETCH  REQUESTED:          0  ISSUED:          0  USEFUL:          0  USELESS:          0
LLC AVERAGE MISS LATENCY: 0 cycles

CPU 1 cumulative IPC: 3.99111 instructions: 1197334 cycles: 300000
cpu1_DTLB TOTAL     ACCESS:      65672  HIT:      65620  MISS:         52
cpu1_DTLB LOAD      ACCESS:      33160  HIT:      33119  MISS:         41
cpu1_DTLB RFO       ACCESS:      32512  HIT:      32501  MISS:         11
cpu1_DTLB PREFETCH  ACCESS:          0  HIT:          0  MISS:          0
cpu1_DTLB WRITEBACK ACCESS:          0  HIT:          0  MISS:          0
cpu1_DTLB TRANSLATION ACCESS:          0  HIT:          0  MISS:          0
cpu1_DTLB PREFETCH  REQUESTED:          0  ISSUED:          0  USEFUL:          0  USELESS:          0
cpu1_DTLB AVERAGE MISS LATENCY: 0 cycles
cpu1_ITLB TOTAL     ACCESS:      13122  HIT:      13122  MISS:          0
cpu1_ITLB LOAD      ACCESS:      13122  HIT:      13122  MISS:          0
cpu1_ITLB RFO       ACCESS:          0  HIT:          0  MISS:          0
cpu1_ITLB PREFETCH  ACCESS:          0  HIT:          0  MISS:          0
cpu1_ITLB WRITEBACK ACCESS:          0  HIT:          0  MISS:          0
cpu1_ITLB TRANSLATION ACCESS:          0  HIT:          0  MISS:          0
cpu1_ITLB PREFETCH  REQUESTED:          0  ISSUED:          0  USEFUL:          0  USELESS:          0
cpu1_ITLB AVERAGE MISS LATENCY: -nan cycles
cpu1_L1I TOTAL     ACCESS:      43040  HIT:      43040  MISS:          0
cpu1_L1I LOAD      ACCESS:      43040  HIT:      43040  MISS:          0
cpu1_L1I RFO       ACCESS:          0  HIT:          0  MISS:          0
cpu1_L1I PREFETCH  ACCESS:          0  HIT:          0  MISS:          0
cpu1_L1I WRITEBACK ACCESS:          0  HIT:          0  MISS:          0
cpu1_L1I TRANSLATION ACCESS:          0  HIT:          0  MISS:          0
cpu1_L1I PREFETCH  REQUESTED:          0  ISSUED:          0  USEFUL:          0  USELESS:          0
cpu1_L1I AVERAGE MISS LATENCY: -nan cycles
cpu1_STLB TOTAL     ACCESS:         52  HIT:         49  MISS:          3
cpu1_STLB LOAD      ACCESS:         41  HIT:         38  MISS:          3
cpu1_STLB RFO       ACCESS:         11  HIT:         11  MISS:          0
cpu1_STLB PREFETCH  ACCESS:          0  HIT:          0  MISS:          0
cpu1_STLB WRITEBACK ACCESS:          0  HIT:          0  MISS:          0
cpu1_STLB TRANSLATION ACCESS:          0  HIT:          0  MISS:          0
cpu1_STLB PREFETCH  REQUESTED:          0  ISSUED:          0  USEFUL:          0  USELESS:          0
cpu1_STLB AVERAGE MISS LATENCY: 0 cycles
cpu1_L1D TOTAL     ACCESS:     126214  HIT:     126199  MISS:         15
cpu1_L1D LOAD      ACCESS:      40591  HIT:      40577  MISS:         14
cpu1_L1D RFO       ACCESS:      85620  HIT:      85620  MISS:          0
cpu1_L1D PREFETCH  ACCESS:          0  HIT:          0  MISS:          0
cpu1_L1D WRITEBACK ACCESS:          0  HIT:          0  MISS:          0
cpu1_L1D TRANSLATION ACCESS:          3  HIT:          2  MISS:          1
cpu1_L1D PREFETCH  REQUESTED:          0  ISSUED:          0  USEFUL:          0  USELESS:          0
cpu1_L1D AVERAGE MISS LATENCY: 0 cycles
cpu1_L2C TOTAL     ACCESS:         15  HIT:          8  MISS:          7
cpu1_L2C LOAD      ACCESS:         14  HIT:          7  MISS:          7
cpu1_L2C RFO       ACCESS:          0  HIT:          0  MISS:          0
cpu1_L2C PREFETCH  ACCESS:          0  HIT:          0  MISS:          0
cpu1_L2C WRITEBACK ACCESS:          0  HIT:          0  MISS:          0
cpu1_L2C TRANSLATION ACCESS:          1  HIT:          1  MISS:          0
cpu1_L2C PREFETCH  REQUESTED:          0  ISSUED:          0  USEFUL:          0  USELESS:          0
cpu1_L2C AVERAGE MISS LATENCY: 0 cycles
LLC TOTAL     ACCESS:          7  HIT:          0  MISS:          7
LLC LOAD      ACCESS:          7  HIT:          0  MISS:          7
LLC RFO       ACCESS:          0  HIT:          0  MISS:          0
LLC PREFETCH  ACCESS:          0  HIT:          0  MISS:          0
LLC WRITEBACK ACCESS:          0  HIT:          0  MISS:          0
LLC TRANSLATION ACCESS:          0  HIT:          0  MISS:          0
LLC PREFETCH  REQUESTED:          0  ISSUED:          0  USEFUL:          0  USELESS:          0
LLC AVERAGE MISS LATENCY: 0 cycles

DRAM Statistics
 CHANNEL 0
 RQ ROW_BUFFER_HIT:          0  ROW_BUFFER_MISS:          0
 DBUS AVG_CONGESTED_CYCLE: -
 WQ ROW_BUFFER_HIT:          0  ROW_BUFFER_MISS:          0  FULL:          0


CPU 0 Branch Prediction Accuracy: 98.0145% MPKI: 5.92516e-14 Average ROB Occupancy at Mispredict: 352
Branch type MPKI
BRANCH_DIRECT_JUMP: 0
BRANCH_INDIRECT: 0.000834906
BRANCH_CONDITIONAL: 0.911717
BRANCH_DIRECT_CALL: 0
BRANCH_INDIRECT_CALL: 0
BRANCH_RETURN: 0


CPU 1 Branch Prediction Accuracy: 98.018% MPKI: 5.91432e-14 Average ROB Occupancy at Mispredict: 352
Branch type MPKI
BRANCH_DIRECT_JUMP: 0
BRANCH_INDIRECT: 0.000835189
BRANCH_CONDITIONAL: 0.910356
BRANCH_DIRECT_CALL: 0
BRANCH_INDIRECT_CALL: 0
BRANCH_RETURN: 0

(Simulation time: 0 hr 0 min 5 sec) 


ChampSim completed all CPUs

Total Simulation Statistics (not including warmup)

CPU 0 cumulative IPC: 3.99435 instructions: 1597740 cycles: 400000
cpu0_DTLB TOTAL     ACCESS:      65907  HIT:      65853  MISS:         54
cpu0_DTLB LOAD      ACCESS:      33031  HIT:      32989  MISS:         42
cpu0_DTLB RFO       ACCESS:      32876  HIT:      32864  MISS:         12
cpu0_DTLB PREFETCH  ACCESS:          0  HIT:          0  MISS:          0
cpu0_DTLB WRITEBACK ACCESS:          0  HIT:          0  MISS:          0
cpu0_ITLB TOTAL     ACCESS:      13138  HIT:      13138  MISS:          0
cpu0_ITLB LOAD      ACCESS:      13138  HIT:      13138  MISS:          0
cpu0_ITLB RFO       ACCESS:          0  HIT:          0  MISS:          0
cpu0_ITLB PREFETCH  ACCESS:          0  HIT:          0  MISS:          0
cpu0_ITLB WRITEBACK ACCESS:          0  HIT:          0  MISS:          0
cpu0_L1I TOTAL     ACCESS:      44656  HIT:      44656  MISS:          0
cpu0_L1I LOAD      ACCESS:      44656  HIT:      44656  MISS:          0
cpu0_L1I RFO       ACCESS:          0  HIT:          0  MISS:          0
cpu0_L1I PREFETCH  ACCESS:          0  HIT:          0  MISS:          0
cpu0_L1I WRITEBACK ACCESS:          0  HIT:          0  MISS:          0
cpu0_STLB TOTAL     ACCESS:         54  HIT:         49  MISS:          5
cpu0_STLB LOAD      ACCESS:         42  HIT:         37  MISS:          5
cpu0_STLB RFO       ACCESS:         12  HIT:         12  MISS:          0
cpu0_STLB PREFETCH  ACCESS:          0  HIT:          0  MISS:          0
cpu0_STLB WRITEBACK ACCESS:          0  HIT:          0  MISS:          0
cpu0_L1D TOTAL     ACCESS:     126597  HIT:     126587  MISS:         10
cpu0_L1D LOAD      ACCESS:      40806  HIT:      40796  MISS:         10
cpu0_L1D RFO       ACCESS:      85786  HIT:      85786  MISS:          0
cpu0_L1D PREFETCH  ACCESS:          0  HIT:          0  MISS:          0
cpu0_L1D WRITEBACK ACCESS:          0  HIT:          0  MISS:          0
cpu0_L2C TOTAL     ACCESS:         11  HIT:          2  MISS:          9
cpu0_L2C LOAD      ACCESS:         10  HIT:          1  MISS:          9
cpu0_L2C RFO       ACCESS:          0  HIT:          0  MISS:          0
cpu0_L2C PREFETCH  ACCESS:          0  HIT:          0  MISS:          0
cpu0_L2C WRITEBACK ACCESS:          1  HIT:          1  MISS:          0
LLC TOTAL     ACCESS:          9  HIT:          0  MISS:          9
LLC LOAD      ACCESS:          9  HIT:          0  MISS:          9
LLC RFO       ACCESS:          0  HIT:          0  MISS:          0
LLC PREFETCH  ACCESS:          0  HIT:          0  MISS:          0
LLC WRITEBACK ACCESS:          0  HIT:          0  MISS:          0

CPU 1 cumulative IPC: 3.99334 instructions: 1597334 cycles: 400000
cpu1_DTLB TOTAL     ACCESS:      65785  HIT:      65731  MISS:         54
cpu1_DTLB LOAD      ACCESS:      33233  HIT:      33191  MISS:         42
cpu1_DTLB RFO       ACCESS:      32552  HIT:      32540  MISS:         12
cpu1_DTLB PREFETCH  ACCESS:          0  HIT:          0  MISS:          0
cpu1_DTLB WRITEBACK ACCESS:          0  HIT:          0  MISS:          0
cpu1_ITLB TOTAL     ACCESS:      13138  HIT:      13138  MISS:          0
cpu1_ITLB LOAD      ACCESS:      13138  HIT:      13138  MISS:          0
cpu1_ITLB RFO       ACCESS:          0  HIT:          0  MISS:          0
cpu1_ITLB PREFETCH  ACCESS:          0  HIT:          0  MISS:          0
cpu1_ITLB WRITEBACK ACCESS:          0  HIT:          0  MISS:          0
cpu1_L1I TOTAL     ACCESS:      42883  HIT:      42883  MISS:          0
cpu1_L1I LOAD      ACCESS:      42883  HIT:      42883  MISS:          0
cpu1_L1I RFO       ACCESS:          0  HIT:          0  MISS:          0
cpu1_L1I PREFETCH  ACCESS:          0  HIT:          0  MISS:          0
cpu1_L1I WRITEBACK ACCESS:          0  HIT:          0  MISS:          0
cpu1_STLB TOTAL     ACCESS:         54  HIT:         49  MISS:          5
cpu1_STLB LOAD      ACCESS:         42  HIT:         37  MISS:          5
cpu1_STLB RFO       ACCESS:         12  HIT:         12  MISS:          0
cpu1_STLB PREFETCH  ACCESS:          0  HIT:          0  MISS:          0
cpu1_STLB WRITEBACK ACCESS:          0  HIT:          0  MISS:          0
cpu1_L1D TOTAL     ACCESS:     126323  HIT:     126313  MISS:         10
cpu1_L1D LOAD      ACCESS:      40602  HIT:      40592  MISS:         10
cpu1_L1D RFO       ACCESS:      85716  HIT:      85716  MISS:          0
cpu1_L1D PREFETCH  ACCESS:          0  HIT:          0  MISS:          0
cpu1_L1D WRITEBACK ACCESS:          0  HIT:          0  MISS:          0
cpu1_L2C TOTAL     ACCESS:         11  HIT:          2  MISS:          9
cpu1_L2C LOAD      ACCESS:         10  HIT:          1  MISS:          9
cpu1_L2C RFO       ACCESS:          0  HIT:          0  MISS:          0
cpu1_L2C PREFETCH  ACCESS:          0  HIT:          0  MISS:          0
cpu1_L2C WRITEBACK ACCESS:          1  HIT:          1  MISS:          0
LLC TOTAL     ACCESS:          9  HIT:          0  MISS:          9
LLC LOAD      ACCESS:          9  HIT:          0  MISS:          9
LLC RFO       ACCESS:          0  HIT:          0  MISS:          0
LLC PREFETCH  ACCESS:          0  HIT:          0  MISS:          0
LLC WRITEBACK ACCESS:          0  HIT:          0  MISS:          0

Region of Interest Statistics

CPU 0 cumulative IPC: 3.99435 instructions: 1597740 cycles: 400000
cpu0_DTLB TOTAL     ACCESS:      65907  HIT:      65853  MISS:         54
cpu0_DTLB LOAD      ACCESS:      33031  HIT:      32989  MISS:         42
cpu0_DTLB RFO       ACCESS:      32876  HIT:      32864  MISS:         12
cpu0_DTLB PREFETCH  ACCESS:          0  HIT:          0  MISS:          0
cpu0_DTLB WRITEBACK ACCESS:          0  HIT:          0  MISS:          0
cpu0_DTLB TRANSLATION ACCESS:          0  HIT:          0  MISS:          0
cpu0_DTLB PREFETCH  REQUESTED:          0  ISSUED:          0  USEFUL:          0  USELESS:          0
cpu0_DTLB AVERAGE MISS LATENCY: 0 cycles
cpu0_ITLB TOTAL     ACCESS:      13138  HIT:      13138  MISS:          0
cpu0_ITLB LOAD      ACCESS:      13138  HIT:      13138  MISS:          0
cpu0_ITLB RFO       ACCESS:          0  HIT:          0  MISS:          0
cpu0_ITLB PREFETCH  ACCESS:          0  HIT:          0  MISS:          0
cpu0_ITLB WRITEBACK ACCESS:          0  HIT:          0  MISS:          0
cpu0_ITLB TRANSLATION ACCESS:          0  HIT:          0  MISS:          0
cpu0_ITLB PREFETCH  REQUESTED:          0  ISSUED:          0  USEFUL:          0  USELESS:          0
cpu0_ITLB AVERAGE MISS LATENCY: -nan cycles
cpu0_L1I TOTAL     ACCESS:      44656  HIT:      44656  MISS:          0
cpu0_L1I LOAD      ACCESS:      44656  HIT:      44656  MISS:          0
cpu0_L1I RFO       ACCESS:          0  HIT:          0  MISS:          0
cpu0_L1I PREFETCH  ACCESS:          0  HIT:          0  MISS:          0
cpu0_L1I WRITEBACK ACCESS:          0  HIT:          0  MISS:          0
cpu0_L1I TRANSLATION ACCESS:          0  HIT:          0  MISS:          0
cpu0_L1I PREFETCH  REQUESTED:          0  ISSUED:          0  USEFUL:          0  USELESS:          0
cpu0_L1I AVERAGE MISS LATENCY: -nan cycles
cpu0_STLB TOTAL     ACCESS:         54  HIT:         49  MISS:          5
cpu0_STLB LOAD      ACCESS:         42  HIT:         37  MISS:          5
cpu0_STLB RFO       ACCESS:         12  HIT:         12  MISS:          0
cpu0_STLB PREFETCH  ACCESS:          0  HIT:          0  MISS:          0
cpu0_STLB WRITEBACK ACCESS:          0  HIT:          0  MISS:          0
cpu0_STLB TRANSLATION ACCESS:          0  HIT:          0  MISS:          0
cpu0_STLB PREFETCH  REQUESTED:          0  ISSUED:          0  USEFUL:          0  USELESS:          0
cpu0_STLB AVERAGE MISS LATENCY: 0 cycles
cpu0_L1D TOTAL     ACCESS:     126597  HIT:     126587  MISS:         10
cpu0_L1D LOAD      ACCESS:      40806  HIT:      40796  MISS:         10
cpu0_L1D RFO       ACCESS:      85786  HIT:      85786  MISS:          0
cpu0_L1D PREFETCH  ACCESS:          0  HIT:          0  MISS:          0
cpu0_L1D WRITEBACK ACCESS:          0  HIT:          0  MISS:          0
cpu0_L1D TRANSLATION ACCESS:          5  HIT:          5  MISS:          0
cpu0_L1D PREFETCH  REQUESTED:          0  ISSUED:          0  USEFUL:          0  USELESS:          0
cpu0_L1D AVERAGE MISS LATENCY: 0 cycles
cpu0_L2C TOTAL     ACCESS:         11  HIT:          2  MISS:          9
cpu0_L2C LOAD      ACCESS:         10  HIT:          1  MISS:          9
cpu0_L2C RFO       ACCESS:          0  HIT:          0  MISS:          0
cpu0_L2C PREFETCH  ACCESS:          0  HIT:          0  MISS:          0
cpu0_L2C WRITEBACK ACCESS:          1  HIT:          1  MISS:          0
cpu0_L2C TRANSLATION ACCESS:          0  HIT:          0  MISS:          0
cpu0_L2C PREFETCH  REQUESTED:          0  ISSUED:          0  USEFUL:          0  USELESS:          0
cpu0_L2C AVERAGE MISS LATENCY: 0 cycles
LLC TOTAL     ACCESS:          9  HIT:          0  MISS:          9
LLC LOAD      ACCESS:          9  HIT:          0  MISS:          9
LLC RFO       ACCESS:          0  HIT:          0  MISS:          0
LLC PREFETCH  ACCESS:          0  HIT:          0  MISS:          0
LLC WRITEBACK ACCESS:          0  HIT:          0  MISS:          0
LLC TRANSLATION ACCESS:          0  HIT:          0  MISS:          0
LLC PREFETCH  REQUESTED:          0  ISSUED:          0  USEFUL:          0  USELESS:          0
LLC AVERAGE MISS LATENCY: 0 cycles

CPU 1 cumulative IPC: 3.99334 instructions: 1597334 cycles: 400000
cpu1_DTLB TOTAL     ACCESS:      65785  HIT:      65731  MISS:         54
cpu1_DTLB LOAD      ACCESS:      33233  HIT:      33191  MISS:         42
cpu1_DTLB RFO       ACCESS:      32552  HIT:      32540  MISS:         12
cpu1_DTLB PREFETCH  ACCESS:          0  HIT:          0  MISS:          0
cpu1_DTLB WRITEBACK ACCESS:          0  HIT:          0  MISS:          0
cpu1_DTLB TRANSLATION ACCESS:          0  HIT:          0  MISS:          0
cpu1_DTLB PREFETCH  REQUESTED:          0  ISSUED:          0  USEFUL:          0  USELESS:          0
cpu1_DTLB AVERAGE MISS LATENCY: 0 cycles
cpu1_ITLB TOTAL     ACCESS:      13138  HIT:      13138  MISS:          0
cpu1_ITLB LOAD      ACCESS:      13138  HIT:      13138  MISS:          0
cpu1_ITLB RFO       ACCESS:          0  HIT:          0  MISS:          0
cpu1_ITLB PREFETCH  ACCESS:          0  HIT:          0  MISS:          0
cpu1_ITLB WRITEBACK ACCESS:          0  HIT:          0  MISS:          0
cpu1_ITLB TRANSLATION ACCESS:          0  HIT:          0  MISS:          0
cpu1_ITLB PREFETCH  REQUESTED:          0  ISSUED:          0  USEFUL:          0  USELESS:          0
cpu1_ITLB AVERAGE MISS LATENCY: -nan cycles
cpu1_L1I TOTAL     ACCESS:      42883  HIT:      42883  MISS:          0
cpu1_L1I LOAD      ACCESS:      42883  HIT:      42883  MISS:          0
cpu1_L1I RFO       ACCESS:          0  HIT:          0  MISS:          0
cpu1_L1I PREFETCH  ACCESS:          0  HIT:          0  MISS:          0
cpu1_L1I WRITEBACK ACCESS:          0  HIT:          0  MISS:          0
cpu1_L1I TRANSLATION ACCESS:          0  HIT:          0  MISS:          0
cpu1_L1I PREFETCH  REQUESTED:          0  ISSUED:          0  USEFUL:          0  USELESS:          0
cpu1_L1I AVERAGE MISS LATENCY: -nan cycles
cpu1_STLB TOTAL     ACCESS:         54  HIT:         49  MISS:          5
cpu1_STLB LOAD      ACCESS:         42  HIT:         37  MISS:          5
cpu1_STLB RFO       ACCESS:         12  HIT:         12  MISS:          0
cpu1_STLB PREFETCH  ACCESS:          0  HIT:          0  MISS:          0
cpu1_STLB WRITEBACK ACCESS:          0  HIT:          0  MISS:          0
cpu1_STLB TRANSLATION ACCESS:          0  HIT:          0  MISS:          0
cpu1_STLB PREFETCH  REQUESTED:          0  ISSUED:          0  USEFUL:          0  USELESS:          0
cpu1_STLB AVERAGE MISS LATENCY: 0 cycles
cpu1_L1D TOTAL     ACCESS:     126323  HIT:     126313  MISS:         10
cpu1_L1D LOAD      ACCESS:      40602  HIT:      40592  MISS:         10
cpu1_L1D RFO       ACCESS:      85716  HIT:      85716  MISS:          0
cpu1_L1D PREFETCH  ACCESS:          0  HIT:          0  MISS:          0
cpu1_L1D WRITEBACK ACCESS:          0  HIT:          0  MISS:          0
cpu1_L1D TRANSLATION ACCESS:          5  HIT:          5  MISS:          0
cpu1_L1D PREFETCH  REQUESTED:          0  ISSUED:          0  USEFUL:          0  USELESS:          0
cpu1_L1D AVERAGE MISS LATENCY: 0 cycles
cpu1_L2C TOTAL     ACCESS:         11  HIT:          2  MISS:          9
cpu1_L2C LOAD      ACCESS:         10  HIT:          1  MISS:          9
cpu1_L2C RFO       ACCESS:          0  HIT:          0  MISS:          0
cpu1_L2C PREFETCH  ACCESS:          0  HIT:          0  MISS:          0
cpu1_L2C WRITEBACK ACCESS:          1  HIT:          1  MISS:          0
cpu1_L2C TRANSLATION ACCESS:          0  HIT:          0  MISS:          0
cpu1_L2C PREFETCH  REQUESTED:          0  ISSUED:          0  USEFUL:          0  USELESS:          0
cpu1_L2C AVERAGE MISS LATENCY: 0 cycles
LLC TOTAL     ACCESS:          9  HIT:          0  MISS:          9
LLC LOAD      ACCESS:          9  HIT:          0  MISS:          9
LLC RFO       ACCESS:          0  HIT:          0  MISS:          0
LLC PREFETCH  ACCESS:          0  HIT:          0  MISS:          0
LLC WRITEBACK ACCESS:          0  HIT:          0  MISS:          0
LLC TRANSLATION ACCESS:          0  HIT:          0  MISS:          0
LLC PREFETCH  REQUESTED:          0  ISSUED:          0  USEFUL:          0  USELESS:          0
LLC AVERAGE MISS LATENCY: 0 cycles

DRAM Statistics
 CHANNEL 0
 RQ ROW_BUFFER_HIT:          0  ROW_BUFFER_MISS:          0
 DBUS AVG_CONGESTED_CYCLE: -
 WQ ROW_BUFFER_HIT:          0  ROW_BUFFER_MISS:          0  FULL:          0


CPU 0 Branch Prediction Accuracy: 98.0256% MPKI: 5.89264e-14 Average ROB Occupancy at Mispredict: 352
Branch type MPKI
BRANCH_DIRECT_JUMP: 0
BRANCH_INDIRECT: 0
BRANCH_CONDITIONAL: 0.680336
BRANCH_DIRECT_CALL: 0
BRANCH_INDIRECT_CALL: 0
BRANCH_RETURN: 0


CPU 1 Branch Prediction Accuracy: 98.026% MPKI: 5.89264e-14 Average ROB Occupancy at Mispredict: 352
Branch type MPKI
BRANCH_DIRECT_JUMP: 0
BRANCH_INDIRECT: 0
BRANCH_CONDITIONAL: 0.680509
BRANCH_DIRECT_CALL: 0
BRANCH_INDIRECT_CALL: 0
BRANCH_RETURN: 0

(Simulation time: 0 hr 0 min 7 sec) 


ChampSim completed all CPUs

Total Simulation Statistics (not including warmup)

CPU 0 cumulative IPC: 3.99548 instructions: 1997740 cycles: 500000
cpu0_DTLB TOTAL     ACCESS:      65705  HIT:      65673  MISS:         32
cpu0_DTLB LOAD      ACCESS:      33303  HIT:      33275  MISS:         28
cpu0_DTLB RFO       ACCESS:      32402  HIT:      32398  MISS:          4
cpu0_DTLB PREFETCH  ACCESS:          0  HIT:          0  MISS:          0
cpu0_DTLB WRITEBACK ACCESS:          0  HIT:          0  MISS:          0
cpu0_ITLB TOTAL     ACCESS:      12999  HIT:      12999  MISS:          0
cpu0_ITLB LOAD      ACCESS:      12999  HIT:      12999  MISS:          0
cpu0_ITLB RFO       ACCESS:          0  HIT:          0  MISS:          0
cpu0_ITLB PREFETCH  ACCESS:          0  HIT:          0  MISS:          0
cpu0_ITLB WRITEBACK ACCESS:          0  HIT:          0  MISS:          0
cpu0_L1I TOTAL     ACCESS:      44196  HIT:      44196  MISS:          0
cpu0_L1I LOAD      ACCESS:      44196  HIT:      44196  MISS:          0
cpu0_L1I RFO       ACCESS:          0  HIT:          0  MISS:          0
cpu0_L1I PREFETCH  ACCESS:          0  HIT:          0  MISS:          0
cpu0_L1I WRITEBACK ACCESS:          0  HIT:          0  MISS:          0
cpu0_STLB TOTAL     ACCESS:         32  HIT:         31  MISS:          1
cpu0_STLB LOAD      ACCESS:         28  HIT:         27  MISS:          1
cpu0_STLB RFO       ACCESS:          4  HIT:          4  MISS:          0
cpu0_STLB PREFETCH  ACCESS:          0  HIT:          0  MISS:          0
cpu0_STLB WRITEBACK ACCESS:          0  HIT:          0  MISS:          0
cpu0_L1D TOTAL     ACCESS:     125808  HIT:     125799  MISS:          9
cpu0_L1D LOAD      ACCESS:      40783  HIT:      40774  MISS:          9
cpu0_L1D RFO       ACCESS:      85024  HIT:      85024  MISS:          0
cpu0_L1D PREFETCH  ACCESS:          0  HIT:          0  MISS:          0
cpu0_L1D WRITEBACK ACCESS:          0  HIT:          0  MISS:          0
cpu0_L2C TOTAL     ACCESS:          9  HIT:          6  MISS:          3
cpu0_L2C LOAD      ACCESS:          9  HIT:          6  MISS:          3
cpu0_L2C RFO       ACCESS:          0  HIT:          0  MISS:          0
cpu0_L2C PREFETCH  ACCESS:          0  HIT:          0  MISS:          0
cpu0_L2C WRITEBACK ACCESS:          0  HIT:          0  MISS:          0
LLC TOTAL     ACCESS:          3  HIT:          0  MISS:          3
LLC LOAD      ACCESS:          3  HIT:          0  MISS:          3
LLC RFO       ACCESS:          0  HIT:          0  MISS:          0
LLC PREFETCH  ACCESS:          0  HIT:          0  MISS:          0
LLC WRITEBACK ACCESS:          0  HIT:          0  MISS:          0

CPU 1 cumulative IPC: 3.99467 instructions: 1997334 cycles: 500000
cpu1_DTLB TOTAL     ACCESS:      65553  HIT:      65521  MISS:         32
cpu1_DTLB LOAD      ACCESS:      33467  HIT:      33439  MISS:         28
cpu1_DTLB RFO       ACCESS:      32086  HIT:      32082  MISS:          4
cpu1_DTLB PREFETCH  ACCESS:          0  HIT:          0  MISS:          0
cpu1_DTLB WRITEBACK ACCESS:          0  HIT:          0  MISS:          0
cpu1_ITLB TOTAL     ACCESS:      12999  HIT:      12999  MISS:          0
cpu1_ITLB LOAD      ACCESS:      12999  HIT:      12999  MISS:          0
cpu1_ITLB RFO       ACCESS:          0  HIT:          0  MISS:          0
cpu1_ITLB PREFETCH  ACCESS:          0  HIT:          0  MISS:          0
cpu1_ITLB WRITEBACK ACCESS:          0  HIT:          0  MISS:          0
cpu1_L1I TOTAL     ACCESS:      42523  HIT:      42523  MISS:          0
cpu1_L1I LOAD      ACCESS:      42523  HIT:      42523  MISS:          0
cpu1_L1I RFO       ACCESS:          0  HIT:          0  MISS:          0
cpu1_L1I PREFETCH  ACCESS:          0  HIT:          0  MISS:          0
cpu1_L1I WRITEBACK ACCESS:          0  HIT:          0  MISS:          0
cpu1_STLB TOTAL     ACCESS:         32  HIT:         31  MISS:          1
cpu1_STLB LOAD      ACCESS:         28  HIT:         27  MISS:          1
cpu1_STLB RFO       ACCESS:          4  HIT:          4  MISS:          0
cpu1_STLB PREFETCH  ACCESS:          0  HIT:          0  MISS:          0
cpu1_STLB WRITEBACK ACCESS:          0  HIT:          0  MISS:          0
cpu1_L1D TOTAL     ACCESS:     125647  HIT:     125638  MISS:          9
cpu1_L1D LOAD      ACCESS:      40646  HIT:      40637  MISS:          9
cpu1_L1D RFO       ACCESS:      85000  HIT:      85000  MISS:          0
cpu1_L1D PREFETCH  ACCESS:          0  HIT:          0  MISS:          0
cpu1_L1D WRITEBACK ACCESS:          0  HIT:          0  MISS:          0
cpu1_L2C TOTAL     ACCESS:          9  HIT:          6  MISS:          3
cpu1_L2C LOAD      ACCESS:          9  HIT:          6  MISS:          3
cpu1_L2C RFO       ACCESS:          0  HIT:          0  MISS:          0
cpu1_L2C PREFETCH  ACCESS:          0  HIT:          0  MISS:          0
cpu1_L2C WRITEBACK ACCESS:          0  HIT:          0  MISS:          0
LLC TOTAL     ACCESS:          3  HIT:          0  MISS:          3
LLC LOAD      ACCESS:          3  HIT:          0  MISS:          3
LLC RFO       ACCESS:          0  HIT:          0  MISS:          0
LLC PREFETCH  ACCESS:          0  HIT:          0  MISS:          0
LLC WRITEBACK ACCESS:          0  HIT:          0  MISS:          0

Region of Interest Statistics

CPU 0 cumulative IPC: 3.99548 instructions: 1997740 cycles: 500000
cpu0_DTLB TOTAL     ACCESS:      65705  HIT:      65673  MISS:         32
cpu0_DTLB LOAD      ACCESS:      33303  HIT:      33275  MISS:         28
cpu0_DTLB RFO       ACCESS:      32402  HIT:      32398  MISS:          4
cpu0_DTLB PREFETCH  ACCESS:          0  HIT:          0  MISS:          0
cpu0_DTLB WRITEBACK ACCESS:          0  HIT:          0  MISS:          0
cpu0_DTLB TRANSLATION ACCESS:          0  HIT:          0  MISS:          0
cpu0_DTLB PREFETCH  REQUESTED:          0  ISSUED:          0  USEFUL:          0  USELESS:          0
cpu0_DTLB AVERAGE MISS LATENCY: 0 cycles
cpu0_ITLB TOTAL     ACCESS:      12999  HIT:      12999  MISS:          0
cpu0_ITLB LOAD      ACCESS:      12999  HIT:      12999  MISS:          0
cpu0_ITLB RFO       ACCESS:          0  HIT:          0  MISS:          0
cpu0_ITLB PREFETCH  ACCESS:          0  HIT:          0  MISS:          0
cpu0_ITLB WRITEBACK ACCESS:          0  HIT:          0  MISS:          0
cpu0_ITLB TRANSLATION ACCESS:          0  HIT:          0  MISS:          0
cpu0_ITLB PREFETCH  REQUESTED:          0  ISSUED:          0  USEFUL:          0  USELESS:          0
cpu0_ITLB AVERAGE MISS LATENCY: -nan cycles
cpu0_L1I TOTAL     ACCESS:      44196  HIT:      44196  MISS:          0
cpu0_L1I LOAD      ACCESS:      44196  HIT:      44196  MISS:          0
cpu0_L1I RFO       ACCESS:          0  HIT:          0  MISS:          0
cpu0_L1I PREFETCH  ACCESS:          0  HIT:          0  MISS:          0
cpu0_L1I WRITEBACK ACCESS:          0  HIT:          0  MISS:          0
cpu0_L1I TRANSLATION ACCESS:          0  HIT:          0  MISS:          0
cpu0_L1I PREFETCH  REQUESTED:          0  ISSUED:          0  USEFUL:          0  USELESS:          0
cpu0_L1I AVERAGE MISS LATENCY: -nan cycles
cpu0_STLB TOTAL     ACCESS:         32  HIT:         31  MISS:          1
cpu0_STLB LOAD      ACCESS:         28  HIT:         27  MISS:          1
cpu0_STLB RFO       ACCESS:          4  HIT:          4  MISS:          0
cpu0_STLB PREFETCH  ACCESS:          0  HIT:          0  MISS:          0
cpu0_STLB WRITEBACK ACCESS:          0  HIT:          0  MISS:          0
cpu0_STLB TRANSLATION ACCESS:          0  HIT:          0  MISS:          0
cpu0_STLB PREFETCH  REQUESTED:          0  ISSUED:          0  USEFUL:          0  USELESS:          0
cpu0_STLB AVERAGE MISS LATENCY: 0 cycles
cpu0_L1D TOTAL     ACCESS:     125808  HIT:     125799  MISS:          9
cpu0_L1D LOAD      ACCESS:      40783  HIT:      40774  MISS:          9
cpu0_L1D RFO       ACCESS:      85024  HIT:      85024  MISS:          0
cpu0_L1D PREFETCH  ACCESS:          0  HIT:          0  MISS:          0
cpu0_L1D WRITEBACK ACCESS:          0  HIT:          0  MISS:          0
cpu0_L1D TRANSLATION ACCESS:          1  HIT:          1  MISS:          0
cpu0_L1D PREFETCH  REQUESTED:          0  ISSUED:          0  USEFUL:          0  USELESS:          0
cpu0_L1D AVERAGE MISS LATENCY: 0 cycles
cpu0_L2C TOTAL     ACCESS:          9  HIT:          6  MISS:          3
cpu0_L2C LOAD      ACCESS:          9  HIT:          6  MISS:          3
cpu0_L2C RFO       ACCESS:          0  HIT:          0  MISS:          0
cpu0_L2C PREFETCH  ACCESS:          0  HIT:          0  MISS:          0
cpu0_L2C WRITEBACK ACCESS:          0  HIT:          0  MISS:          0
cpu0_L2C TRANSLATION ACCESS:          0  HIT:          0  MISS:          0
cpu0_L2C PREFETCH  REQUESTED:          0  ISSUED:          0  USEFUL:          0  USELESS:          0
cpu0_L2C AVERAGE MISS LATENCY: 0 cycles
LLC TOTAL     ACCESS:          3  HIT:          0  MISS:          3
LLC LOAD      ACCESS:          3  HIT:          0  MISS:          3
LLC RFO       ACCESS:          0  HIT:          0  MISS:          0
LLC PREFETCH  ACCESS:          0  HIT:          0  MISS:          0
LLC WRITEBACK ACCESS:          0  HIT:          0  MISS:          0
LLC TRANSLATION ACCESS:          0  HIT:          0  MISS:          0
LLC PREFETCH  REQUESTED:          0  ISSUED:          0  USEFUL:          0  USELESS:          0
LLC AVERAGE MISS LATENCY: 0 cycles

CPU 1 cumulative IPC: 3.99467 instructions: 1997334 cycles: 500000
cpu1_DTLB TOTAL     ACCESS:      65553  HIT:      65521  MISS:         32
cpu1_DTLB LOAD      ACCESS:      33467  HIT:      33439  MISS:         28
cpu1_DTLB RFO       ACCESS:      32086  HIT:      32082  MISS:          4
cpu1_DTLB PREFETCH  ACCESS:          0  HIT:          0  MISS:          0
cpu1_DTLB WRITEBACK ACCESS:          0  HIT:          0  MISS:          0
cpu1_DTLB TRANSLATION ACCESS:          0  HIT:          0  MISS:          0
cpu1_DTLB PREFETCH  REQUESTED:          0  ISSUED:          0  USEFUL:          0  USELESS:          0
cpu1_DTLB AVERAGE MISS LATENCY: 0 cycles
cpu1_ITLB TOTAL     ACCESS:      12999  HIT:      12999  MISS:          0
cpu1_ITLB LOAD      ACCESS:      12999  HIT:      12999  MISS:          0
cpu1_ITLB RFO       ACCESS:          0  HIT:          0  MISS:          0
cpu1_ITLB PREFETCH  ACCESS:          0  HIT:          0  MISS:          0
cpu1_ITLB WRITEBACK ACCESS:          0  HIT:          0  MISS:          0
cpu1_ITLB TRANSLATION ACCESS:          0  HIT:          0  MISS:          0
cpu1_ITLB PREFETCH  REQUESTED:          0  ISSUED:          0  USEFUL:          0  USELESS:          0
cpu1_ITLB AVERAGE MISS LATENCY: -nan cycles
cpu1_L1I TOTAL     ACCESS:      42523  HIT:      42523  MISS:          0
cpu1_L1I LOAD      ACCESS:      42523  HIT:      42523  MISS:          0
cpu1_L1I RFO       ACCESS:          0  HIT:          0  MISS:          0
cpu1_L1I PREFETCH  ACCESS:          0  HIT:          0  MISS:          0
cpu1_L1I WRITEBACK ACCESS:          0  HIT:          0  MISS:          0
cpu1_L1I TRANSLATION ACCESS:          0  HIT:          0  MISS:          0
cpu1_L1I PREFETCH  REQUESTED:          0  ISSUED:          0  USEFUL:          0  USELESS:          0
cpu1_L1I AVERAGE MISS LATENCY: -nan cycles
cpu1_STLB TOTAL     ACCESS:         32  HIT:         31  MISS:          1
cpu1_STLB LOAD      ACCESS:         28  HIT:         27  MISS:          1
cpu1_STLB RFO       ACCESS:          4  HIT:          4  MISS:          0
cpu1_STLB PREFETCH  ACCESS:          0  HIT:          0  MISS:          0
cpu1_STLB WRITEBACK ACCESS:          0  HIT:          0  MISS:          0
cpu1_STLB TRANSLATION ACCESS:          0  HIT:          0  MISS:          0
cpu1_STLB PREFETCH  REQUESTED:          0  ISSUED:          0  USEFUL:          0  USELESS:          0
cpu1_STLB AVERAGE MISS LATENCY: 0 cycles
cpu1_L1D TOTAL     ACCESS:     125647  HIT:     125638  MISS:          9
cpu1_L1D LOAD      ACCESS:      40646  HIT:      40637  MISS:          9
cpu1_L1D RFO       ACCESS:      85000  HIT:      85000  MISS:          0
cpu1_L1D PREFETCH  ACCESS:          0  HIT:          0  MISS:          0
cpu1_L1D WRITEBACK ACCESS:          0  HIT:          0  MISS:          0
cpu1_L1D TRANSLATION ACCESS:          1  HIT:          1  MISS:          0
cpu1_L1D PREFETCH  REQUESTED:          0  ISSUED:          0  USEFUL:          0  USELESS:          0
cpu1_L1D AVERAGE MISS LATENCY: 0 cycles
cpu1_L2C TOTAL     ACCESS:          9  HIT:          6  MISS:          3
cpu1_L2C LOAD      ACCESS:          9  HIT:          6  MISS:          3
cpu1_L2C RFO       ACCESS:          0  HIT:          0  MISS:          0
cpu1_L2C PREFETCH  ACCESS:          0  HIT:          0  MISS:          0
cpu1_L2C WRITEBACK ACCESS:          0  HIT:          0  MISS:          0
cpu1_L2C TRANSLATION ACCESS:          0  HIT:          0  MISS:          0
cpu1_L2C PREFETCH  REQUESTED:          0  ISSUED:          0  USEFUL:          0  USELESS:          0
cpu1_L2C AVERAGE MISS LATENCY: 0 cycles
LLC TOTAL     ACCESS:          3  HIT:          0  MISS:          3
LLC LOAD      ACCESS:          3  HIT:          0  MISS:          3
LLC RFO       ACCESS:          0  HIT:          0  MISS:          0
LLC PREFETCH  ACCESS:          0  HIT:          0  MISS:          0
LLC WRITEBACK ACCESS:          0  HIT:          0  MISS:          0
LLC TRANSLATION ACCESS:          0  HIT:          0  MISS:          0
LLC PREFETCH  REQUESTED:          0  ISSUED:          0  USEFUL:          0  USELESS:          0
LLC AVERAGE MISS LATENCY: 0 cycles

DRAM Statistics
 CHANNEL 0
 RQ ROW_BUFFER_HIT:          0  ROW_BUFFER_MISS:          0
 DBUS AVG_CONGESTED_CYCLE: -
 WQ ROW_BUFFER_HIT:          0  ROW_BUFFER_MISS:          0  FULL:          0


CPU 0 Branch Prediction Accuracy: 98.0435% MPKI: 5.84385e-14 Average ROB Occupancy at Mispredict: 352
Branch type MPKI
BRANCH_DIRECT_JUMP: 0
BRANCH_INDIRECT: 0
BRANCH_CONDITIONAL: 0.53961
BRANCH_DIRECT_CALL: 0
BRANCH_INDIRECT_CALL: 0
BRANCH_RETURN: 0


CPU 1 Branch Prediction Accuracy: 98.0431% MPKI: 5.84385e-14 Average ROB Occupancy at Mispredict: 352
Branch type MPKI
BRANCH_DIRECT_JUMP: 0
BRANCH_INDIRECT: 0
BRANCH_CONDITIONAL: 0.539719
BRANCH_DIRECT_CALL: 0
BRANCH_INDIRECT_CALL: 0
BRANCH_RETURN: 0

(Simulation time: 0 hr 0 min 9 sec) 

Warmup complete CPU 0 instructions: 2000408 cycles: 500667 (Simulation time: 0 hr 0 min 9 sec) 
Warmup complete CPU 1 instructions: 2000002 cycles: 500667 (Simulation time: 0 hr 0 min 9 sec) 



ChampSim completed all CPUs

Total Simulation Statistics (not including warmup)

CPU 0 cumulative IPC: 1.9696 instructions: 196960 cycles: 100000
cpu0_DTLB TOTAL     ACCESS:      33578  HIT:      33569  MISS:          9
cpu0_DTLB LOAD      ACCESS:      18175  HIT:      18166  MISS:          9
cpu0_DTLB RFO       ACCESS:      15403  HIT:      15403  MISS:          0
cpu0_DTLB PREFETCH  ACCESS:          0  HIT:          0  MISS:          0
cpu0_DTLB WRITEBACK ACCESS:          0  HIT:          0  MISS:          0
cpu0_ITLB TOTAL     ACCESS:      14964  HIT:      14964  MISS:          0
cpu0_ITLB LOAD      ACCESS:      14964  HIT:      14964  MISS:          0
cpu0_ITLB RFO       ACCESS:          0  HIT:          0  MISS:          0
cpu0_ITLB PREFETCH  ACCESS:          0  HIT:          0  MISS:          0
cpu0_ITLB WRITEBACK ACCESS:          0  HIT:          0  MISS:          0
cpu0_L1I TOTAL     ACCESS:       6986  HIT:       6986  MISS:          0
cpu0_L1I LOAD      ACCESS:       6986  HIT:       6986  MISS:          0
cpu0_L1I RFO       ACCESS:          0  HIT:          0  MISS:          0
cpu0_L1I PREFETCH  ACCESS:          0  HIT:          0  MISS:          0
cpu0_L1I WRITEBACK ACCESS:          0  HIT:          0  MISS:          0
cpu0_STLB TOTAL     ACCESS:          9  HIT:          9  MISS:          0
cpu0_STLB LOAD      ACCESS:          9  HIT:          9  MISS:          0
cpu0_STLB RFO       ACCESS:          0  HIT:          0  MISS:          0
cpu0_STLB PREFETCH  ACCESS:          0  HIT:          0  MISS:          0
cpu0_STLB WRITEBACK ACCESS:          0  HIT:          0  MISS:          0
cpu0_L1D TOTAL     ACCESS:      63304  HIT:      63298  MISS:          6
cpu0_L1D LOAD      ACCESS:      21716  HIT:      21710  MISS:          6
cpu0_L1D RFO       ACCESS:      41588  HIT:      41588  MISS:          0
cpu0_L1D PREFETCH  ACCESS:          0  HIT:          0  MISS:          0
cpu0_L1D WRITEBACK ACCESS:          0  HIT:          0  MISS:          0
cpu0_L2C TOTAL     ACCESS:          7  HIT:          6  MISS:          1
cpu0_L2C LOAD      ACCESS:          6  HIT:          5  MISS:          1
cpu0_L2C RFO       ACCESS:          0  HIT:          0  MISS:          0
cpu0_L2C PREFETCH  ACCESS:          0  HIT:          0  MISS:          0
cpu0_L2C WRITEBACK ACCESS:          1  HIT:          1  MISS:          0
LLC TOTAL     ACCESS:          1  HIT:          0  MISS:          1
LLC LOAD      ACCESS:          1  HIT:          0  MISS:          1
LLC RFO       ACCESS:          0  HIT:          0  MISS:          0
LLC PREFETCH  ACCESS:          0  HIT:          0  MISS:          0
LLC WRITEBACK ACCESS:          0  HIT:          0  MISS:          0

CPU 1 cumulative IPC: 1.96664 instructions: 196664 cycles: 100000
cpu1_DTLB TOTAL     ACCESS:      31557  HIT:      31548  MISS:          9
cpu1_DTLB LOAD      ACCESS:      16664  HIT:      16655  MISS:          9
cpu1_DTLB RFO       ACCESS:      14893  HIT:      14893  MISS:          0
cpu1_DTLB PREFETCH  ACCESS:          0  HIT:          0  MISS:          0
cpu1_DTLB WRITEBACK ACCESS:          0  HIT:          0  MISS:          0
cpu1_ITLB TOTAL     ACCESS:      14818  HIT:      14818  MISS:          0
cpu1_ITLB LOAD      ACCESS:      14818  HIT:      14818  MISS:          0
cpu1_ITLB RFO       ACCESS:          0  HIT:          0  MISS:          0
cpu1_ITLB PREFETCH  ACCESS:          0  HIT:          0  MISS:          0
cpu1_ITLB WRITEBACK ACCESS:          0  HIT:          0  MISS:          0
cpu1_L1I TOTAL     ACCESS:       5841  HIT:       5840  MISS:          1
cpu1_L1I LOAD      ACCESS:       5841  HIT:       5840  MISS:          1
cpu1_L1I RFO       ACCESS:          0  HIT:          0  MISS:          0
cpu1_L1I PREFETCH  ACCESS:          0  HIT:          0  MISS:          0
cpu1_L1I WRITEBACK ACCESS:          0  HIT:          0  MISS:          0
cpu1_STLB TOTAL     ACCESS:          9  HIT:          9  MISS:          0
cpu1_STLB LOAD      ACCESS:          9  HIT:          9  MISS:          0
cpu1_STLB RFO       ACCESS:          0  HIT:          0  MISS:          0
cpu1_STLB PREFETCH  ACCESS:          0  HIT:          0  MISS:          0
cpu1_STLB WRITEBACK ACCESS:          0  HIT:          0  MISS:          0
cpu1_L1D TOTAL     ACCESS:      63122  HIT:      63116  MISS:          6
cpu1_L1D LOAD      ACCESS:      21593  HIT:      21587  MISS:          6
cpu1_L1D RFO       ACCESS:      41529  HIT:      41529  MISS:          0
cpu1_L1D PREFETCH  ACCESS:          0  HIT:          0  MISS:          0
cpu1_L1D WRITEBACK ACCESS:          0  HIT:          0  MISS:          0
cpu1_L2C TOTAL     ACCESS:          8  HIT:          7  MISS:          1
cpu1_L2C LOAD      ACCESS:          7  HIT:          6  MISS:          1
cpu1_L2C RFO       ACCESS:          0  HIT:          0  MISS:          0
cpu1_L2C PREFETCH  ACCESS:          0  HIT:          0  MISS:          0
cpu1_L2C WRITEBACK ACCESS:          1  HIT:          1  MISS:          0
LLC TOTAL     ACCESS:          1  HIT:          0  MISS:          1
LLC LOAD      ACCESS:          1  HIT:          0  MISS:          1
LLC RFO       ACCESS:          0  HIT:          0  MISS:          0
LLC PREFETCH  ACCESS:          0  HIT:          0  MISS:          0
LLC WRITEBACK ACCESS:          0  HIT:          0  MISS:          0

Region of Interest Statistics

CPU 0 cumulative IPC: 1.9696 instructions: 196960 cycles: 100000
cpu0_DTLB TOTAL     ACCESS:      33578  HIT:      33569  MISS:          9
cpu0_DTLB LOAD      ACCESS:      18175  HIT:      18166  MISS:          9
cpu0_DTLB RFO       ACCESS:      15403  HIT:      15403  MISS:          0
cpu0_DTLB PREFETCH  ACCESS:          0  HIT:          0  MISS:          0
cpu0_DTLB WRITEBACK ACCESS:          0  HIT:          0  MISS:          0
cpu0_DTLB TRANSLATION ACCESS:          0  HIT:          0  MISS:          0
cpu0_DTLB PREFETCH  REQUESTED:          0  ISSUED:          0  USEFUL:          0  USELESS:          0
cpu0_DTLB AVERAGE MISS LATENCY: 8.66667 cycles
cpu0_ITLB TOTAL     ACCESS:      14964  HIT:      14964  MISS:          0
cpu0_ITLB LOAD      ACCESS:      14964  HIT:      14964  MISS:          0
cpu0_ITLB RFO       ACCESS:          0  HIT:          0  MISS:          0
cpu0_ITLB PREFETCH  ACCESS:          0  HIT:          0  MISS:          0
cpu0_ITLB WRITEBACK ACCESS:          0  HIT:          0  MISS:          0
cpu0_ITLB TRANSLATION ACCESS:          0  HIT:          0  MISS:          0
cpu0_ITLB PREFETCH  REQUESTED:          0  ISSUED:          0  USEFUL:          0  USELESS:          0
cpu0_ITLB AVERAGE MISS LATENCY: -nan cycles
cpu0_L1I TOTAL     ACCESS:       6986  HIT:       6986  MISS:          0
cpu0_L1I LOAD      ACCESS:       6986  HIT:       6986  MISS:          0
cpu0_L1I RFO       ACCESS:          0  HIT:          0  MISS:          0
cpu0_L1I PREFETCH  ACCESS:          0  HIT:          0  MISS:          0
cpu0_L1I WRITEBACK ACCESS:          0  HIT:          0  MISS:          0
cpu0_L1I TRANSLATION ACCESS:          0  HIT:          0  MISS:          0
cpu0_L1I PREFETCH  REQUESTED:          0  ISSUED:          0  USEFUL:          0  USELESS:          0
cpu0_L1I AVERAGE MISS LATENCY: -nan cycles
[...]
cpu0_ITLB PREFETCH  ACCESS:          0  HIT:          0  MISS:          0
cpu0_ITLB WRITEBACK ACCESS:          0  HIT:          0  MISS:          0
cpu0_ITLB TRANSLATION ACCESS:          0  HIT:          0  MISS:          0
cpu0_ITLB PREFETCH  REQUESTED:          0  ISSUED:          0  USEFUL:          0  USELESS:          0
cpu0_ITLB AVERAGE MISS LATENCY: -nan cycles
cpu0_L1I TOTAL     ACCESS:       7329  HIT:       7329  MISS:          0
cpu0_L1I LOAD      ACCESS:       7329  HIT:       7329  MISS:          0
cpu0_L1I RFO       ACCESS:          0  HIT:          0  MISS:          0
cpu0_L1I PREFETCH  ACCESS:          0  HIT:          0  MISS:          0
cpu0_L1I WRITEBACK ACCESS:          0  HIT:          0  MISS:          0
cpu0_L1I TRANSLATION ACCESS:          0  HIT:          0  MISS:          0
cpu0_L1I PREFETCH  REQUESTED:          0  ISSUED:          0  USEFUL:          0  USELESS:          0
cpu0_L1I AVERAGE MISS LATENCY: -nan cycles
cpu0_STLB TOTAL     ACCESS:         30  HIT:         30  MISS:          0
cpu0_STLB LOAD      ACCESS:         26  HIT:         26  MISS:          0
cpu0_STLB RFO       ACCESS:          4  HIT:          4  MISS:          0
cpu0_STLB PREFETCH  ACCESS:          0  HIT:          0  MISS:          0
cpu0_STLB WRITEBACK ACCESS:          0  HIT:          0  MISS:          0
cpu0_STLB TRANSLATION ACCESS:          0  HIT:          0  MISS:          0
cpu0_STLB PREFETCH  REQUESTED:          0  ISSUED:          0  USEFUL:          0  USELESS:          0
cpu0_STLB AVERAGE MISS LATENCY: -nan cycles
cpu0_L1D TOTAL     ACCESS:      62046  HIT:      62045  MISS:          1
cpu0_L1D LOAD      ACCESS:      21563  HIT:      21562  MISS:          1
cpu0_L1D RFO       ACCESS:      40483  HIT:      40483  MISS:          0
cpu0_L1D PREFETCH  ACCESS:          0  HIT:          0  MISS:          0
cpu0_L1D WRITEBACK ACCESS:          0  HIT:          0  MISS:          0
cpu0_L1D TRANSLATION ACCESS:          0  HIT:          0  MISS:          0
cpu0_L1D PREFETCH  REQUESTED:          0  ISSUED:          0  USEFUL:          0  USELESS:          0
cpu0_L1D AVERAGE MISS LATENCY: 10 cycles
cpu0_L2C TOTAL     ACCESS:          1  HIT:          1  MISS:          0
cpu0_L2C LOAD      ACCESS:          1  HIT:          1  MISS:          0
cpu0_L2C RFO       ACCESS:          0  HIT:          0  MISS:          0
cpu0_L2C PREFETCH  ACCESS:          0  HIT:          0  MISS:          0
cpu0_L2C WRITEBACK ACCESS:          0  HIT:          0  MISS:          0
cpu0_L2C TRANSLATION ACCESS:          0  HIT:          0  MISS:          0
cpu0_L2C PREFETCH  REQUESTED:          0  ISSUED:          0  USEFUL:          0  USELESS:          0
cpu0_L2C AVERAGE MISS LATENCY: -nan cycles

CPU 1 cumulative IPC: 1.64362 instructions: 4766504 cycles: 2900000
cpu1_DTLB TOTAL     ACCESS:      31049  HIT:      31017  MISS:         32
cpu1_DTLB LOAD      ACCESS:      16515  HIT:      16487  MISS:         28
cpu1_DTLB RFO       ACCESS:      14534  HIT:      14530  MISS:          4
cpu1_DTLB PREFETCH  ACCESS:          0  HIT:          0  MISS:          0
cpu1_DTLB WRITEBACK ACCESS:          0  HIT:          0  MISS:          0
cpu1_DTLB TRANSLATION ACCESS:          0  HIT:          0  MISS:          0
cpu1_DTLB PREFETCH  REQUESTED:          0  ISSUED:          0  USEFUL:          0  USELESS:          0
cpu1_DTLB AVERAGE MISS LATENCY: 8.84375 cycles
cpu1_ITLB TOTAL     ACCESS:      14023  HIT:      14023  MISS:          0
cpu1_ITLB LOAD      ACCESS:      14023  HIT:      14023  MISS:          0
cpu1_ITLB RFO       ACCESS:          0  HIT:          0  MISS:          0
cpu1_ITLB PREFETCH  ACCESS:          0  HIT:          0  MISS:          0
cpu1_ITLB WRITEBACK ACCESS:          0  HIT:          0  MISS:          0
cpu1_ITLB TRANSLATION ACCESS:          0  HIT:          0  MISS:          0
cpu1_ITLB PREFETCH  REQUESTED:          0  ISSUED:          0  USEFUL:          0  USELESS:          0
cpu1_ITLB AVERAGE MISS LATENCY: -nan cycles
cpu1_L1I TOTAL     ACCESS:       6310  HIT:       6310  MISS:          0
cpu1_L1I LOAD      ACCESS:       6310  HIT:       6310  MISS:          0
cpu1_L1I RFO       ACCESS:          0  HIT:          0  MISS:          0
cpu1_L1I PREFETCH  ACCESS:          0  HIT:          0  MISS:          0
cpu1_L1I WRITEBACK ACCESS:          0  HIT:          0  MISS:          0
cpu1_L1I TRANSLATION ACCESS:          0  HIT:          0  MISS:          0
cpu1_L1I PREFETCH  REQUESTED:          0  ISSUED:          0  USEFUL:          0  USELESS:          0
cpu1_L1I AVERAGE MISS LATENCY: -nan cycles
cpu1_STLB TOTAL     ACCESS:         32  HIT:         32  MISS:          0
cpu1_STLB LOAD      ACCESS:         28  HIT:         28  MISS:          0
cpu1_STLB RFO       ACCESS:          4  HIT:          4  MISS:          0
cpu1_STLB PREFETCH  ACCESS:          0  HIT:          0  MISS:          0
cpu1_STLB WRITEBACK ACCESS:          0  HIT:          0  MISS:          0
cpu1_STLB TRANSLATION ACCESS:          0  HIT:          0  MISS:          0
cpu1_STLB PREFETCH  REQUESTED:          0  ISSUED:          0  USEFUL:          0  USELESS:          0
cpu1_STLB AVERAGE MISS LATENCY: -nan cycles
cpu1_L1D TOTAL     ACCESS:      61666  HIT:      61665  MISS:          1
cpu1_L1D LOAD      ACCESS:      21364  HIT:      21363  MISS:          1
cpu1_L1D RFO       ACCESS:      40302  HIT:      40302  MISS:          0
cpu1_L1D PREFETCH  ACCESS:          0  HIT:          0  MISS:          0
cpu1_L1D WRITEBACK ACCESS:          0  HIT:          0  MISS:          0
cpu1_L1D TRANSLATION ACCESS:          0  HIT:          0  MISS:          0
cpu1_L1D PREFETCH  REQUESTED:          0  ISSUED:          0  USEFUL:          0  USELESS:          0
cpu1_L1D AVERAGE MISS LATENCY: 10 cycles
cpu1_L2C TOTAL     ACCESS:          1  HIT:          1  MISS:          0
cpu1_L2C LOAD      ACCESS:          1  HIT:          1  MISS:          0
cpu1_L2C RFO       ACCESS:          0  HIT:          0  MISS:          0
cpu1_L2C PREFETCH  ACCESS:          0  HIT:          0  MISS:          0
cpu1_L2C WRITEBACK ACCESS:          0  HIT:          0  MISS:          0
cpu1_L2C TRANSLATION ACCESS:          0  HIT:          0  MISS:          0
cpu1_L2C PREFETCH  REQUESTED:          0  ISSUED:          0  USEFUL:          0  USELESS:          0
cpu1_L2C AVERAGE MISS LATENCY: -nan cycles

DRAM Statistics
 CHANNEL 0
 RQ ROW_BUFFER_HIT:          0  ROW_BUFFER_MISS:          0
 DBUS AVG_CONGESTED_CYCLE:    3.75419
 WQ ROW_BUFFER_HIT:          0  ROW_BUFFER_MISS:          0  FULL:          0


CPU 0 Branch Prediction Accuracy: 97.9286% MPKI: 0.113956 Average ROB Occupancy at Mispredict: 176.824
Branch type MPKI
BRANCH_DIRECT_JUMP: 0
BRANCH_INDIRECT: 0
BRANCH_CONDITIONAL: 0.113966
BRANCH_DIRECT_CALL: 0
BRANCH_INDIRECT_CALL: 0
BRANCH_RETURN: 0


CPU 1 Branch Prediction Accuracy: 97.9124% MPKI: 0.11434 Average ROB Occupancy at Mispredict: 174.719
Branch type MPKI
BRANCH_DIRECT_JUMP: 0
BRANCH_INDIRECT: 0
BRANCH_CONDITIONAL: 0.11434
BRANCH_DIRECT_CALL: 0
BRANCH_INDIRECT_CALL: 0
BRANCH_RETURN: 0

(Simulation time: 0 hr 0 min 39 sec) 


ChampSim completed all CPUs

Total Simulation Statistics (not including warmup)

CPU 0 cumulative IPC: 1.65799 instructions: 4973976 cycles: 3000000
cpu0_DTLB TOTAL     ACCESS:      33158  HIT:      33141  MISS:         17
cpu0_DTLB LOAD      ACCESS:      18069  HIT:      18052  MISS:         17
cpu0_DTLB RFO       ACCESS:      15089  HIT:      15089  MISS:          0
cpu0_DTLB PREFETCH  ACCESS:          0  HIT:          0  MISS:          0
cpu0_DTLB WRITEBACK ACCESS:          0  HIT:          0  MISS:          0
cpu0_ITLB TOTAL     ACCESS:      14664  HIT:      14664  MISS:          0
cpu0_ITLB LOAD      ACCESS:      14664  HIT:      14664  MISS:          0
cpu0_ITLB RFO       ACCESS:          0  HIT:          0  MISS:          0
cpu0_ITLB PREFETCH  ACCESS:          0  HIT:          0  MISS:          0
cpu0_ITLB WRITEBACK ACCESS:          0  HIT:          0  MISS:          0
cpu0_L1I TOTAL     ACCESS:       7001  HIT:       7001  MISS:          0
cpu0_L1I LOAD      ACCESS:       7001  HIT:       7001  MISS:          0
cpu0_L1I RFO       ACCESS:          0  HIT:          0  MISS:          0
cpu0_L1I PREFETCH  ACCESS:          0  HIT:          0  MISS:          0
cpu0_L1I WRITEBACK ACCESS:          0  HIT:          0  MISS:          0
cpu0_STLB TOTAL     ACCESS:         17  HIT:         17  MISS:          0
cpu0_STLB LOAD      ACCESS:         17  HIT:         17  MISS:          0
cpu0_STLB RFO       ACCESS:          0  HIT:          0  MISS:          0
cpu0_STLB PREFETCH  ACCESS:          0  HIT:          0  MISS:          0
cpu0_STLB WRITEBACK ACCESS:          0  HIT:          0  MISS:          0
cpu0_L1D TOTAL     ACCESS:      62262  HIT:      62261  MISS:          1
cpu0_L1D LOAD      ACCESS:      21571  HIT:      21570  MISS:          1
cpu0_L1D RFO       ACCESS:      40691  HIT:      40691  MISS:          0
cpu0_L1D PREFETCH  ACCESS:          0  HIT:          0  MISS:          0
cpu0_L1D WRITEBACK ACCESS:          0  HIT:          0  MISS:          0
cpu0_L2C TOTAL     ACCESS:          1  HIT:          1  MISS:          0
cpu0_L2C LOAD      ACCESS:          1  HIT:          1  MISS:          0
cpu0_L2C RFO       ACCESS:          0  HIT:          0  MISS:          0
cpu0_L2C PREFETCH  ACCESS:          0  HIT:          0  MISS:          0
cpu0_L2C WRITEBACK ACCESS:          0  HIT:          0  MISS:          0

CPU 1 cumulative IPC: 1.65356 instructions: 4960691 cycles: 3000000
cpu1_DTLB TOTAL     ACCESS:      31443  HIT:      31429  MISS:         14
cpu1_DTLB LOAD      ACCESS:      16636  HIT:      16622  MISS:         14
cpu1_DTLB RFO       ACCESS:      14807  HIT:      14807  MISS:          0
cpu1_DTLB PREFETCH  ACCESS:          0  HIT:          0  MISS:          0
cpu1_DTLB WRITEBACK ACCESS:          0  HIT:          0  MISS:          0
cpu1_ITLB TOTAL     ACCESS:      14761  HIT:      14761  MISS:          0
cpu1_ITLB LOAD      ACCESS:      14761  HIT:      14761  MISS:          0
cpu1_ITLB RFO       ACCESS:          0  HIT:          0  MISS:          0
cpu1_ITLB PREFETCH  ACCESS:          0  HIT:          0  MISS:          0
cpu1_ITLB WRITEBACK ACCESS:          0  HIT:          0  MISS:          0
cpu1_L1I TOTAL     ACCESS:       5796  HIT:       5796  MISS:          0
cpu1_L1I LOAD      ACCESS:       5796  HIT:       5796  MISS:          0
cpu1_L1I RFO       ACCESS:          0  HIT:          0  MISS:          0
cpu1_L1I PREFETCH  ACCESS:          0  HIT:          0  MISS:          0
cpu1_L1I WRITEBACK ACCESS:          0  HIT:          0  MISS:          0
cpu1_STLB TOTAL     ACCESS:         14  HIT:         14  MISS:          0
cpu1_STLB LOAD      ACCESS:         14  HIT:         14  MISS:          0
cpu1_STLB RFO       ACCESS:          0  HIT:          0  MISS:          0
cpu1_STLB PREFETCH  ACCESS:          0  HIT:          0  MISS:          0
cpu1_STLB WRITEBACK ACCESS:          0  HIT:          0  MISS:          0
cpu1_L1D TOTAL     ACCESS:      62889  HIT:      62888  MISS:          1
cpu1_L1D LOAD      ACCESS:      21634  HIT:      21633  MISS:          1
cpu1_L1D RFO       ACCESS:      41255  HIT:      41255  MISS:          0
cpu1_L1D PREFETCH  ACCESS:          0  HIT:          0  MISS:          0
cpu1_L1D WRITEBACK ACCESS:          0  HIT:          0  MISS:          0
cpu1_L2C TOTAL     ACCESS:          1  HIT:          1  MISS:          0
cpu1_L2C LOAD      ACCESS:          1  HIT:          1  MISS:          0
cpu1_L2C RFO       ACCESS:          0  HIT:          0  MISS:          0
cpu1_L2C PREFETCH  ACCESS:          0  HIT:          0  MISS:          0
cpu1_L2C WRITEBACK ACCESS:          0  HIT:          0  MISS:          59555559

Region of Interest Statistics

CPU 0 cumulative IPC: 1.65799 instructions: 4973976 cycles: 3000000
cpu0_DTLB TOTAL     ACCESS:      33158  HIT:      33141  MISS:         17
cpu0_DTLB LOAD      ACCESS:      18069  HIT:      18052  MISS:         17
cpu0_DTLB RFO       ACCESS:      15089  HIT:      15089  MISS:          0
cpu0_DTLB PREFETCH  ACCESS:          0  HIT:          0  MISS:          0
cpu0_DTLB WRITEBACK ACCESS:          0  HIT:          0  MISS:          0
cpu0_DTLB TRANSLATION ACCESS:          0  HIT:          0  MISS:          0
cpu0_DTLB PREFETCH  REQUESTED:          0  ISSUED:          0  USEFUL:          0  USELESS:          0
cpu0_DTLB AVERAGE MISS LATENCY: 8.41176 cycles
cpu0_ITLB TOTAL     ACCESS:      14664  HIT:      14664  MISS:          0
cpu0_ITLB LOAD      ACCESS:      14664  HIT:      14664  MISS:          0
cpu0_ITLB RFO       ACCESS:          0  HIT:          0  MISS:          0
cpu0_ITLB PREFETCH  ACCESS:          0  HIT:          0  MISS:          0
cpu0_ITLB WRITEBACK ACCESS:          0  HIT:          0  MISS:          0
cpu0_ITLB TRANSLATION ACCESS:          0  HIT:          0  MISS:          0
cpu0_ITLB PREFETCH  REQUESTED:          0  ISSUED:          0  USEFUL:          0  USELESS:          0
cpu0_ITLB AVERAGE MISS LATENCY: -nan cycles
cpu0_L1I TOTAL     ACCESS:       7001  HIT:       7001  MISS:          0
cpu0_L1I LOAD      ACCESS:       7001  HIT:       7001  MISS:          0
cpu0_L1I RFO       ACCESS:          0  HIT:          0  MISS:          0
cpu0_L1I PREFETCH  ACCESS:          0  HIT:          0  MISS:          0
cpu0_L1I WRITEBACK ACCESS:          0  HIT:          0  MISS:          0
cpu0_L1I TRANSLATION ACCESS:          0  HIT:          0  MISS:          0
cpu0_L1I PREFETCH  REQUESTED:          0  ISSUED:          0  USEFUL:          0  USELESS:          0
cpu0_L1I AVERAGE MISS LATENCY: -nan cycles
cpu0_STLB TOTAL     ACCESS:         17  HIT:         17  MISS:          0
cpu0_STLB LOAD      ACCESS:         17  HIT:         17  MISS:          0
cpu0_STLB RFO       ACCESS:          0  HIT:          0  MISS:          0
cpu0_STLB PREFETCH  ACCESS:          0  HIT:          0  MISS:          0
cpu0_STLB WRITEBACK ACCESS:          0  HIT:          0  MISS:          0
cpu0_STLB TRANSLATION ACCESS:          0  HIT:          0  MISS:          0
cpu0_STLB PREFETCH  REQUESTED:          0  ISSUED:          0  USEFUL:          0  USELESS:          0
cpu0_STLB AVERAGE MISS LATENCY: -nan cycles
cpu0_L1D TOTAL     ACCESS:      62262  HIT:      62261  MISS:          1
cpu0_L1D LOAD      ACCESS:      21571  HIT:      21570  MISS:          1
cpu0_L1D RFO       ACCESS:      40691  HIT:      40691  MISS:          0
cpu0_L1D PREFETCH  ACCESS:          0  HIT:          0  MISS:          0
cpu0_L1D WRITEBACK ACCESS:          0  HIT:          0  MISS:          0
cpu0_L1D TRANSLATION ACCESS:          0  HIT:          0  MISS:          0
cpu0_L1D PREFETCH  REQUESTED:          0  ISSUED:          0  USEFUL:          0  USELESS:          0
cpu0_L1D AVERAGE MISS LATENCY: 11 cycles
cpu0_L2C TOTAL     ACCESS:          1  HIT:          1  MISS:          0
cpu0_L2C LOAD      ACCESS:          1  HIT:          1  MISS:          0
cpu0_L2C RFO       ACCESS:          0  HIT:          0  MISS:          0
cpu0_L2C PREFETCH  ACCESS:          0  HIT:          0  MISS:          0
cpu0_L2C WRITEBACK ACCESS:          0  HIT:          0  MISS:          0
cpu0_L2C TRANSLATION ACCESS:          0  HIT:          0  MISS:          0
cpu0_L2C PREFETCH  REQUESTED:          0  ISSUED:          0  USEFUL:          0  USELESS:          0
cpu0_L2C AVERAGE MISS LATENCY: -nan cycles

CPU 1 cumulative IPC: 1.65356 instructions: 4960691 cycles: 3000000
cpu1_DTLB TOTAL     ACCESS:      31443  HIT:      31429  MISS:         14
cpu1_DTLB LOAD      ACCESS:      16636  HIT:      16622  MISS:         14
cpu1_DTLB RFO       ACCESS:      14807  HIT:      14807  MISS:          0
cpu1_DTLB PREFETCH  ACCESS:          0  HIT:          0  MISS:          0
cpu1_DTLB WRITEBACK ACCESS:          0  HIT:          0  MISS:          0
cpu1_DTLB TRANSLATION ACCESS:          0  HIT:          0  MISS:          0
cpu1_DTLB PREFETCH  REQUESTED:          0  ISSUED:          0  USEFUL:          0  USELESS:          0
cpu1_DTLB AVERAGE MISS LATENCY: 8.92857 cycles
cpu1_ITLB TOTAL     ACCESS:      14761  HIT:      14761  MISS:          0
cpu1_ITLB LOAD      ACCESS:      14761  HIT:      14761  MISS:          0
cpu1_ITLB RFO       ACCESS:          0  HIT:          0  MISS:          0
cpu1_ITLB PREFETCH  ACCESS:          0  HIT:          0  MISS:          0
cpu1_ITLB WRITEBACK ACCESS:          0  HIT:          0  MISS:          0
cpu1_ITLB TRANSLATION ACCESS:          0  HIT:          0  MISS:          0
cpu1_ITLB PREFETCH  REQUESTED:          0  ISSUED:          0  USEFUL:          0  USELESS:          0
cpu1_ITLB AVERAGE MISS LATENCY: -nan cycles
cpu1_L1I TOTAL     ACCESS:       5796  HIT:       5796  MISS:          0
cpu1_L1I LOAD      ACCESS:       5796  HIT:       5796  MISS:          0
cpu1_L1I RFO       ACCESS:          0  HIT:          0  MISS:          0
cpu1_L1I PREFETCH  ACCESS:          0  HIT:          0  MISS:          0
cpu1_L1I WRITEBACK ACCESS:          0  HIT:          0  MISS:          0
cpu1_L1I TRANSLATION ACCESS:          0  HIT:          0  MISS:          0
cpu1_L1I PREFETCH  REQUESTED:          0  ISSUED:          0  USEFUL:          0  USELESS:          0
cpu1_L1I AVERAGE MISS LATENCY: -nan cycles
cpu1_STLB TOTAL     ACCESS:         14  HIT:         14  MISS:          0
cpu1_STLB LOAD      ACCESS:         14  HIT:         14  MISS:          0
cpu1_STLB RFO       ACCESS:          0  HIT:          0  MISS:          0
cpu1_STLB PREFETCH  ACCESS:          0  HIT:          0  MISS:          0
cpu1_STLB WRITEBACK ACCESS:          0  HIT:          0  MISS:          0
cpu1_STLB TRANSLATION ACCESS:          0  HIT:          0  MISS:          0
cpu1_STLB PREFETCH  REQUESTED:          0  ISSUED:          0  USEFUL:          0  USELESS:          0
cpu1_STLB AVERAGE MISS LATENCY: -nan cycles
cpu1_L1D TOTAL     ACCESS:      62889  HIT:      62888  MISS:          1
cpu1_L1D LOAD      ACCESS:      21634  HIT:      21633  MISS:          1
cpu1_L1D RFO       ACCESS:      41255  HIT:      41255  MISS:          0
cpu1_L1D PREFETCH  ACCESS:          0  HIT:          0  MISS:          0
cpu1_L1D WRITEBACK ACCESS:          0  HIT:          0  MISS:          0
cpu1_L1D TRANSLATION ACCESS:          0  HIT:          0  MISS:          0
cpu1_L1D PREFETCH  REQUESTED:          0  ISSUED:          0  USEFUL:          0  USELESS:          0
cpu1_L1D AVERAGE MISS LATENCY: 11 cycles
cpu1_L2C TOTAL     ACCESS:          1  HIT:          1  MISS:          0
cpu1_L2C LOAD      ACCESS:          1  HIT:          1  MISS:          0
cpu1_L2C RFO       ACCESS:          0  HIT:          0  MISS:          0
cpu1_L2C PREFETCH  ACCESS:          0  HIT:          0  MISS:          0
cpu1_L2C WRITEBACK ACCESS:          0  HIT:          0  MISS:          0
cpu1_L2C TRANSLATION ACCESS:          0  HIT:          0  MISS:          0
cpu1_L2C PREFETCH  REQUESTED:          0  ISSUED:          0  USEFUL:          0  USELESS:          0
cpu1_L2C AVERAGE MISS LATENCY: -nan cycles

DRAM Statistics
 CHANNEL 0
 RQ ROW_BUFFER_HIT:          0  ROW_BUFFER_MISS:          0
 DBUS AVG_CONGESTED_CYCLE:    3.75419
 WQ ROW_BUFFER_HIT:          0  ROW_BUFFER_MISS:          0  FULL:          0


CPU 0 Branch Prediction Accuracy: 97.9379% MPKI: 0.109963 Average ROB Occupancy at Mispredict: 185.695
Branch type MPKI
BRANCH_DIRECT_JUMP: 0
BRANCH_INDIRECT: 0
BRANCH_CONDITIONAL: 0.109972
BRANCH_DIRECT_CALL: 0
BRANCH_INDIRECT_CALL: 0
BRANCH_RETURN: 0


CPU 1 Branch Prediction Accuracy: 97.9874% MPKI: 0.108453 Average ROB Occupancy at Mispredict: 189.805
Branch type MPKI
BRANCH_DIRECT_JUMP: 0
BRANCH_INDIRECT: 0
BRANCH_CONDITIONAL: 0.108453
BRANCH_DIRECT_CALL: 0
BRANCH_INDIRECT_CALL: 0
BRANCH_RETURN: 0

(Simulation time: 0 hr 0 min 41 sec) 
Finished CPU 0 instructions: 5000002 cycles: 3013560 cumulative IPC: 1.65917 (Simulation time: 0 hr 0 min 41 sec) 
Finished CPU 1 instructions: 5000003 cycles: 3021789 cumulative IPC: 1.65465 (Simulation time: 0 hr 0 min 41 sec) 
